
 Created by Python create_sdf_string function

 28  0  0  0  0  0  0  0  0  0999 V2000
    0.0000    0.0000    0.0000 C   0  0  0  0  0  0  0  0  0  0  0  0
    0.1048   -1.7907   -1.0045 C   0  0  0  0  0  0  0  0  0  0  0  0
    0.2148   -1.6800    0.5874 C   0  0  0  0  0  0  0  0  0  0  0  0
    0.7169   -0.8452   -0.0664 C   0  0  0  0  0  0  0  0  0  0  0  0
    0.9233   -0.5070    0.0209 C   0  0  0  0  0  0  0  0  0  0  0  0
   -1.7534   -0.4330   -1.1256 C   0  0  0  0  0  0  0  0  0  0  0  0
   -0.4073    1.6172    0.2577 C   0  0  0  0  0  0  0  0  0  0  0  0
    0.0268    1.4503   -0.2177 C   0  0  0  0  0  0  0  0  0  0  0  0
   -0.1397    1.2505    1.7561 C   0  0  0  0  0  0  0  0  0  0  0  0
    0.1115    1.6471    1.0778 C   0  0  0  0  0  0  0  0  0  0  0  0
   -0.6553   -0.5838    1.2458 C   0  0  0  0  0  0  0  0  0  0  0  0
   -1.8298   -0.2997   -0.7235 C   0  0  0  0  0  0  0  0  0  0  0  0
   -0.7956    1.8599   -0.6403 C   0  0  0  0  0  0  0  0  0  0  0  0
   -1.3323   -0.1586    0.7524 C   0  0  0  0  0  0  0  0  0  0  0  0
   -0.6811   -2.2533   -0.2739 C   0  0  0  0  0  0  0  0  0  0  0  0
    1.7757    0.8734   -0.4607 C   0  0  0  0  0  0  0  0  0  0  0  0
    0.7363   -2.0931   -1.2299 C   0  0  0  0  0  0  0  0  0  0  0  0
    0.9539   -1.3318    0.3900 C   0  0  0  0  0  0  0  0  0  0  0  0
    0.3667   -1.9628    0.0016 C   0  0  0  0  0  0  0  0  0  0  0  0
   -1.5260    1.1693    1.8592 C   0  0  0  0  0  0  0  0  0  0  0  0
   -0.9448   -2.3493   -0.7645 C   0  0  0  0  0  0  0  0  0  0  0  0
    0.3459   -0.9648   -0.9512 C   0  0  0  0  0  0  0  0  0  0  0  0
   -1.6582    0.5452    0.7616 C   0  0  0  0  0  0  0  0  0  0  0  0
   -0.6098   -0.1174   -1.4436 C   0  0  0  0  0  0  0  0  0  0  0  0
    1.0505   -0.4853   -1.7837 C   0  0  0  0  0  0  0  0  0  0  0  0
    1.6538    1.1329   -0.5506 C   0  0  0  0  0  0  0  0  0  0  0  0
   -1.0424   -1.3261   -0.5949 C   0  0  0  0  0  0  0  0  0  0  0  0
    0.3181    2.4076    0.3851 C   0  0  0  0  0  0  0  0  0  0  0  0
M  END
$$$$

 Created by Python create_sdf_string function

 28 38  0  0  0  0  0  0  0  0999 V2000
    9.4786    9.0642   19.6619 C   0  0  0  0  0  0  0  0  0  0  0  0
    9.0757    7.6456   20.3271 C   0  0  0  0  0  0  0  0  0  0  0  0
    8.9467    8.0451   19.7178 N   0  0  0  0  0  0  0  0  0  0  0  0
    8.4179    7.0196   20.8833 N   0  0  0  0  0  0  0  0  0  0  0  0
    8.5380    7.1143   21.6577 O   0  0  0  0  0  0  0  0  0  0  0  0
    9.1331    5.7364   22.3237 C   0  0  0  0  0  0  0  0  0  0  0  0
    9.7738    7.9909   20.3859 S   0  0  0  0  0  0  0  0  0  0  0  0
    9.0361    6.9205   21.3387 S   0  0  0  0  0  0  0  0  0  0  0  0
   12.0417    6.8835   22.8853 O   0  0  0  0  0  0  0  0  0  0  0  0
    7.7666    6.5537   21.0078 O   0  0  0  0  0  0  0  0  0  0  0  0
    9.5408    8.7598   22.0582 F   0  0  0  0  0  0  0  0  0  0  0  0
   11.5821    6.3949   21.0719 C   0  0  0  0  0  0  0  0  0  0  0  0
    7.7702    7.4069   19.9591 P   0  0  0  0  0  0  0  0  0  0  0  0
   11.6311    7.8175   20.5250 F   0  0  0  0  0  0  0  0  0  0  0  0
   12.0073    6.6642   20.6832 He  0  0  0  0  0  0  0  0  0  0  0  0
    9.7425    7.6965   21.2627 He  0  0  0  0  0  0  0  0  0  0  0  0
    9.3555    6.4064   22.0862 He  0  0  0  0  0  0  0  0  0  0  0  0
   10.5310    7.7195   20.2986 He  0  0  0  0  0  0  0  0  0  0  0  0
    6.4179    7.7420   20.9456 He  0  0  0  0  0  0  0  0  0  0  0  0
    9.4168    8.1228   19.4241 He  0  0  0  0  0  0  0  0  0  0  0  0
    9.1293    8.8407   21.5739 He  0  0  0  0  0  0  0  0  0  0  0  0
    9.1855    7.0043   20.4959 He  0  0  0  0  0  0  0  0  0  0  0  0
    7.9543    7.8742   21.1781 He  0  0  0  0  0  0  0  0  0  0  0  0
   10.1904    8.6298   23.0031 He  0  0  0  0  0  0  0  0  0  0  0  0
    8.7327    8.2782   21.4025 He  0  0  0  0  0  0  0  0  0  0  0  0
    8.5843    7.5559   19.3096 He  0  0  0  0  0  0  0  0  0  0  0  0
   10.5954    7.0196   22.1936 He  0  0  0  0  0  0  0  0  0  0  0  0
   10.2957    8.5028   21.5168 He  0  0  0  0  0  0  0  0  0  0  0  0
  1  8  4  0
  1  9  2  0
  1 11  1  0
  1 13  4  0
  2  3  4  0
  2  6  4  0
  2  8  4  0
  2  9  1  0
  2 11  4  0
  2 14  3  0
  3  4  2  0
  4  8  1  0
  4 11  4  0
  4 12  1  0
  4 13  3  0
  4 14  3  0
  5  7  4  0
  5  8  1  0
  5  9  1  0
  5 10  3  0
  5 11  2  0
  5 13  3  0
  6  9  1  0
  6 10  2  0
  6 12  1  0
  7  9  2  0
  8  9  2  0
  8 10  3  0
  8 11  3  0
  8 14  3  0
  9 12  3  0
  9 13  4  0
  9 14  2  0
 10 11  3  0
 10 13  4  0
 10 14  1  0
 11 14  3  0
 12 13  4  0
M  END
$$$$

 Created by Python create_sdf_string function

 28  0  0  0  0  0  0  0  0  0999 V2000
   12.6013    6.6212   20.7498 C   0  0  0  0  0  0  0  0  0  0  0  0
   10.4338    7.6180   21.9335 C   0  0  0  0  0  0  0  0  0  0  0  0
    9.6047    5.8439   22.8232 C   0  0  0  0  0  0  0  0  0  0  0  0
    9.6748    9.4196   19.0515 C   0  0  0  0  0  0  0  0  0  0  0  0
   11.4738    7.8071   19.8640 C   0  0  0  0  0  0  0  0  0  0  0  0
    5.8327    7.4388   20.7554 C   0  0  0  0  0  0  0  0  0  0  0  0
    9.4971    8.5322   18.2645 C   0  0  0  0  0  0  0  0  0  0  0  0
    8.7885    7.8981   19.6299 C   0  0  0  0  0  0  0  0  0  0  0  0
    8.7395    8.2905   18.7519 C   0  0  0  0  0  0  0  0  0  0  0  0
    9.1264    9.6425   22.0938 C   0  0  0  0  0  0  0  0  0  0  0  0
    7.5926    6.7698   20.9780 C   0  0  0  0  0  0  0  0  0  0  0  0
    8.1331    6.6598   22.2328 C   0  0  0  0  0  0  0  0  0  0  0  0
    9.1708    6.9316   20.0235 C   0  0  0  0  0  0  0  0  0  0  0  0
    9.2991    5.3152   22.8625 C   0  0  0  0  0  0  0  0  0  0  0  0
   10.3109    8.4179   19.9194 C   0  0  0  0  0  0  0  0  0  0  0  0
    6.9169    7.8774   21.1723 C   0  0  0  0  0  0  0  0  0  0  0  0
   10.4406    8.9954   23.3543 C   0  0  0  0  0  0  0  0  0  0  0  0
    8.4418    8.9638   21.9201 C   0  0  0  0  0  0  0  0  0  0  0  0
    8.7694    6.4087   21.9571 C   0  0  0  0  0  0  0  0  0  0  0  0
   12.2351    6.7096   22.7651 C   0  0  0  0  0  0  0  0  0  0  0  0
    8.0241    7.6937   18.2761 C   0  0  0  0  0  0  0  0  0  0  0  0
   11.0827    6.6727   22.7594 C   0  0  0  0  0  0  0  0  0  0  0  0
   11.0161    8.9721   21.9471 C   0  0  0  0  0  0  0  0  0  0  0  0
    6.8370    6.3050   21.1110 C   0  0  0  0  0  0  0  0  0  0  0  0
    9.8022    9.4213   22.7734 C   0  0  0  0  0  0  0  0  0  0  0  0
   12.2383    6.4750   21.2521 C   0  0  0  0  0  0  0  0  0  0  0  0
    6.7868    7.4064   19.4771 C   0  0  0  0  0  0  0  0  0  0  0  0
   12.4673    7.6732   20.3530 C   0  0  0  0  0  0  0  0  0  0  0  0
M  END
$$$$

 Created by Python create_sdf_string function

 28 71  0  0  0  0  0  0  0  0999 V2000
   14.5121    6.4845   20.3208 N   0  0  0  0  0  0  0  0  0  0  0  0
    9.8168    8.6092   22.1018 N   0  0  0  0  0  0  0  0  0  0  0  0
    9.5463    5.8132   22.4492 I   0  0  0  0  0  0  0  0  0  0  0  0
   11.3137    8.9152   19.5399 N   0  0  0  0  0  0  0  0  0  0  0  0
   10.8470    8.1863   21.0559 C   0  0  0  0  0  0  0  0  0  0  0  0
    5.3215    8.0701   20.7905 F   0  0  0  0  0  0  0  0  0  0  0  0
    8.9899    9.4836   18.1345 Cl  0  0  0  0  0  0  0  0  0  0  0  0
    8.0417    7.5142   19.6898 C   0  0  0  0  0  0  0  0  0  0  0  0
    7.8449    6.4176   18.3362 O   0  0  0  0  0  0  0  0  0  0  0  0
    8.4162    8.8740   21.9043 O   0  0  0  0  0  0  0  0  0  0  0  0
    6.9459    7.0981   21.8909 C   0  0  0  0  0  0  0  0  0  0  0  0
    7.6922    7.1676   20.4929 F   0  0  0  0  0  0  0  0  0  0  0  0
   12.1189    8.9107   24.2454 C   0  0  0  0  0  0  0  0  0  0  0  0
    8.3657    4.7283   22.4852 Br  0  0  0  0  0  0  0  0  0  0  0  0
   11.6046    6.9277   23.7132 C   0  0  0  0  0  0  0  0  0  0  0  0
   10.4833    8.7549   22.3937 C   0  0  0  0  0  0  0  0  0  0  0  0
   10.7121    9.3143   21.3616 N   0  0  0  0  0  0  0  0  0  0  0  0
    5.7493    7.1057   21.5527 N   0  0  0  0  0  0  0  0  0  0  0  0
    8.4918    8.6147   21.8770 C   0  0  0  0  0  0  0  0  0  0  0  0
   11.3247    7.3599   19.9740 C   0  0  0  0  0  0  0  0  0  0  0  0
    7.6565    7.4502   20.3917 He  0  0  0  0  0  0  0  0  0  0  0  0
    8.7654    5.7430   22.9012 He  0  0  0  0  0  0  0  0  0  0  0  0
    8.6081    6.8410   20.2530 He  0  0  0  0  0  0  0  0  0  0  0  0
    5.7282    7.4462   23.2409 He  0  0  0  0  0  0  0  0  0  0  0  0
    9.0584    8.8203   21.5127 He  0  0  0  0  0  0  0  0  0  0  0  0
    8.2047    6.5158   17.5834 He  0  0  0  0  0  0  0  0  0  0  0  0
    5.6693    6.7828   19.5131 He  0  0  0  0  0  0  0  0  0  0  0  0
   10.5665    8.3680   18.8081 He  0  0  0  0  0  0  0  0  0  0  0  0
  1  2  2  0
  1  4  4  0
  1  6  3  0
  1  8  1  0
  1 11  3  0
  1 14  4  0
  1 18  3  0
  1 20  2  0
  2  4  4  0
  2  6  4  0
  2  8  2  0
  2  9  4  0
  2 12  3  0
  2 14  4  0
  2 15  4  0
  2 17  1  0
  2 18  2  0
  2 20  4  0
  3  9  4  0
  3 10  4  0
  3 12  1  0
  3 17  2  0
  3 18  1  0
  4  8  4  0
  4 11  1  0
  4 12  2  0
  4 16  2  0
  4 17  3  0
  4 20  1  0
  5  8  2  0
  5  9  2  0
  5 10  4  0
  5 11  1  0
  5 13  1  0
  5 14  1  0
  6  7  4  0
  6  8  1  0
  6 10  3  0
  6 12  4  0
  6 14  3  0
  6 19  3  0
  6 20  2  0
  7  8  1  0
  7 10  3  0
  7 12  3  0
  7 13  4  0
  7 16  4  0
  8 15  2  0
  9 10  1  0
  9 11  1  0
  9 14  4  0
  9 17  1  0
  9 19  4  0
  9 20  4  0
 10 11  1  0
 10 14  3  0
 10 15  1  0
 11 16  2  0
 11 17  2  0
 11 18  3  0
 11 19  2  0
 12 13  2  0
 12 15  2  0
 12 16  3  0
 12 19  4  0
 14 17  2  0
 14 19  1  0
 16 18  2  0
 16 19  4  0
 16 20  2  0
 17 19  1  0
M  END
$$$$

 Created by Python create_sdf_string function

 28  0  0  0  0  0  0  0  0  0999 V2000
   13.0310    7.0872   20.3642 O   0  0  0  0  0  0  0  0  0  0  0  0
   10.2516    8.5847   22.3459 C   0  0  0  0  0  0  0  0  0  0  0  0
    9.4711    5.8917   22.6821 C   0  0  0  0  0  0  0  0  0  0  0  0
   11.4753    8.5244   19.4557 C   0  0  0  0  0  0  0  0  0  0  0  0
   11.3433    8.2084   21.0855 C   0  0  0  0  0  0  0  0  0  0  0  0
    5.3570    7.6569   20.8357 C   0  0  0  0  0  0  0  0  0  0  0  0
    9.1777    8.7935   18.1827 C   0  0  0  0  0  0  0  0  0  0  0  0
    8.0274    7.5936   19.1970 C   0  0  0  0  0  0  0  0  0  0  0  0
    7.5430    6.7639   18.1005 C   0  0  0  0  0  0  0  0  0  0  0  0
    8.3088    8.9666   22.2169 C   0  0  0  0  0  0  0  0  0  0  0  0
    7.3291    7.4601   20.2283 C   0  0  0  0  0  0  0  0  0  0  0  0
    6.9098    7.0622   22.1016 C   0  0  0  0  0  0  0  0  0  0  0  0
    7.3118    7.2434   20.3776 C   0  0  0  0  0  0  0  0  0  0  0  0
    8.7772    5.8847   22.8969 C   0  0  0  0  0  0  0  0  0  0  0  0
    8.6685    6.9152   20.0067 C   0  0  0  0  0  0  0  0  0  0  0  0
    5.8155    7.3845   22.9276 C   0  0  0  0  0  0  0  0  0  0  0  0
   11.8249    8.6181   23.5911 C   0  0  0  0  0  0  0  0  0  0  0  0
    9.2198    8.9098   21.7558 C   0  0  0  0  0  0  0  0  0  0  0  0
    8.4231    5.2441   22.5687 C   0  0  0  0  0  0  0  0  0  0  0  0
   11.5148    7.3012   23.4393 C   0  0  0  0  0  0  0  0  0  0  0  0
    7.9374    6.9965   17.7151 C   0  0  0  0  0  0  0  0  0  0  0  0
   10.8936    8.6452   22.6515 C   0  0  0  0  0  0  0  0  0  0  0  0
   11.0038    9.1012   21.4845 C   0  0  0  0  0  0  0  0  0  0  0  0
    5.6815    7.1903   21.6473 C   0  0  0  0  0  0  0  0  0  0  0  0
    8.5137    8.5225   22.1212 C   0  0  0  0  0  0  0  0  0  0  0  0
   11.8288    7.5305   19.9693 C   0  0  0  0  0  0  0  0  0  0  0  0
    5.7884    7.0213   19.3484 C   0  0  0  0  0  0  0  0  0  0  0  0
   10.7128    8.3661   18.8516 C   0  0  0  0  0  0  0  0  0  0  0  0
M  END
$$$$

 Created by Python create_sdf_string function

 28 51  0  0  0  0  0  0  0  0999 V2000
   13.1382    7.1441   20.4038 N   0  0  0  0  0  0  0  0  0  0  0  0
   10.3671    7.7529   21.8659 N   0  0  0  0  0  0  0  0  0  0  0  0
   11.9490    9.0587   20.1875 B   0  0  0  0  0  0  0  0  0  0  0  0
    7.4601    6.3233   20.4363 N   0  0  0  0  0  0  0  0  0  0  0  0
    7.4227    6.5787   19.3891 C   0  0  0  0  0  0  0  0  0  0  0  0
    6.7441    8.7092   23.1632 N   0  0  0  0  0  0  0  0  0  0  0  0
    7.5951    6.1279   20.4853 P   0  0  0  0  0  0  0  0  0  0  0  0
    8.6287    8.8676   21.3370 B   0  0  0  0  0  0  0  0  0  0  0  0
   10.9317    8.2800   24.2010 P   0  0  0  0  0  0  0  0  0  0  0  0
    9.6834    9.5476   22.0476 F   0  0  0  0  0  0  0  0  0  0  0  0
    9.7895    9.1147   22.7385 C   0  0  0  0  0  0  0  0  0  0  0  0
   10.8463    9.8704   20.6026 P   0  0  0  0  0  0  0  0  0  0  0  0
    5.4896    6.7347   21.0739 F   0  0  0  0  0  0  0  0  0  0  0  0
    8.7686    9.4192   22.6927 B   0  0  0  0  0  0  0  0  0  0  0  0
    4.5455    9.0815   19.1137 C   0  0  0  0  0  0  0  0  0  0  0  0
    9.0685    4.7914   21.6670 He  0  0  0  0  0  0  0  0  0  0  0  0
   11.1214    8.1240   21.4664 He  0  0  0  0  0  0  0  0  0  0  0  0
    4.9669    6.9315   20.8410 He  0  0  0  0  0  0  0  0  0  0  0  0
   10.2800    9.4747   18.2540 He  0  0  0  0  0  0  0  0  0  0  0  0
    6.9097    4.9276   22.1829 He  0  0  0  0  0  0  0  0  0  0  0  0
    8.2194    8.0508   21.2765 He  0  0  0  0  0  0  0  0  0  0  0  0
    7.4811    7.3501   23.1660 He  0  0  0  0  0  0  0  0  0  0  0  0
    6.2168    8.5972   22.2525 He  0  0  0  0  0  0  0  0  0  0  0  0
    7.9622    5.8422   22.7972 He  0  0  0  0  0  0  0  0  0  0  0  0
   13.3726    6.7753   22.2765 He  0  0  0  0  0  0  0  0  0  0  0  0
    5.9080    7.9590   16.9052 He  0  0  0  0  0  0  0  0  0  0  0  0
   11.8982    9.6626   19.5009 He  0  0  0  0  0  0  0  0  0  0  0  0
   10.8308    6.6016   18.6960 He  0  0  0  0  0  0  0  0  0  0  0  0
  1  2  1  0
  1  3  2  0
  1  4  4  0
  1  7  3  0
  1 10  4  0
  1 11  3  0
  1 12  3  0
  1 13  1  0
  1 14  2  0
  1 15  4  0
  2  3  3  0
  2  4  3  0
  2  6  4  0
  2  8  4  0
  2 10  3  0
  2 12  4  0
  3  4  2  0
  3 11  3  0
  4  5  2  0
  4  7  4  0
  4 14  1  0
  5  7  1  0
  5  8  1  0
  5  9  3  0
  5 12  4  0
  5 14  4  0
  6  8  1  0
  6 11  2  0
  6 13  3  0
  6 14  4  0
  7  8  1  0
  7  9  3  0
  7 11  4  0
  7 15  4  0
  8 10  3  0
  8 12  1  0
  8 13  2  0
  8 15  2  0
  9 11  4  0
  9 13  2  0
  9 15  1  0
 10 11  4  0
 10 13  3  0
 10 15  4  0
 11 12  1  0
 11 14  4  0
 12 14  1  0
 12 15  2  0
 13 14  1  0
 13 15  3  0
 14 15  4  0
M  END
$$$$

 Created by Python create_sdf_string function

 28  0  0  0  0  0  0  0  0  0999 V2000
   12.5619    7.3839   20.5663 C   0  0  0  0  0  0  0  0  0  0  0  0
   10.7883    7.8456   21.8951 C   0  0  0  0  0  0  0  0  0  0  0  0
    8.7255    5.1565   21.6864 C   0  0  0  0  0  0  0  0  0  0  0  0
   11.8757    8.8029   20.0564 C   0  0  0  0  0  0  0  0  0  0  0  0
   11.3968    8.0954   21.3879 C   0  0  0  0  0  0  0  0  0  0  0  0
    5.2747    7.3193   20.4480 C   0  0  0  0  0  0  0  0  0  0  0  0
   10.5184    9.3226   18.8922 C   0  0  0  0  0  0  0  0  0  0  0  0
    7.3041    6.4671   20.4193 C   0  0  0  0  0  0  0  0  0  0  0  0
    7.1211    6.8846   19.4047 C   0  0  0  0  0  0  0  0  0  0  0  0
    7.0060    8.7662   23.1027 C   0  0  0  0  0  0  0  0  0  0  0  0
    7.4857    6.1687   20.5512 C   0  0  0  0  0  0  0  0  0  0  0  0
    7.1849    5.1736   22.1167 C   0  0  0  0  0  0  0  0  0  0  0  0
    8.0744    8.2271   21.4021 C   0  0  0  0  0  0  0  0  0  0  0  0
    7.4664    7.3758   23.0489 C   0  0  0  0  0  0  0  0  0  0  0  0
    8.6087    9.0202   21.4292 C   0  0  0  0  0  0  0  0  0  0  0  0
    6.2946    8.5886   22.1225 C   0  0  0  0  0  0  0  0  0  0  0  0
   10.8573    8.2415   23.6539 C   0  0  0  0  0  0  0  0  0  0  0  0
    9.8017    9.4904   22.1328 C   0  0  0  0  0  0  0  0  0  0  0  0
    7.9239    5.8727   22.5851 C   0  0  0  0  0  0  0  0  0  0  0  0
   12.5720    7.1176   21.9833 C   0  0  0  0  0  0  0  0  0  0  0  0
    6.2552    7.5958   18.2891 C   0  0  0  0  0  0  0  0  0  0  0  0
    9.8474    9.0739   22.8406 C   0  0  0  0  0  0  0  0  0  0  0  0
   10.8319    9.6542   20.4957 C   0  0  0  0  0  0  0  0  0  0  0  0
    5.7086    7.0583   20.7405 C   0  0  0  0  0  0  0  0  0  0  0  0
    8.7015    9.3705   22.8159 C   0  0  0  0  0  0  0  0  0  0  0  0
   11.7226    9.3345   19.5030 C   0  0  0  0  0  0  0  0  0  0  0  0
    5.1257    8.2371   19.3193 C   0  0  0  0  0  0  0  0  0  0  0  0
   10.9577    7.1452   19.2254 C   0  0  0  0  0  0  0  0  0  0  0  0
M  END
$$$$

 Created by Python create_sdf_string function

 28 36  0  0  0  0  0  0  0  0999 V2000
    9.0209    7.1440   20.9380 C   0  0  0  0  0  0  0  0  0  0  0  0
    9.0791    4.2040   20.3545 N   0  0  0  0  0  0  0  0  0  0  0  0
    7.2904    5.0369   19.5682 C   0  0  0  0  0  0  0  0  0  0  0  0
    7.1884    5.3252   22.7616 S   0  0  0  0  0  0  0  0  0  0  0  0
    9.7852    8.4634   21.5709 C   0  0  0  0  0  0  0  0  0  0  0  0
    8.2760    5.3259   23.9023 F   0  0  0  0  0  0  0  0  0  0  0  0
    7.0238    9.9173   21.6674 P   0  0  0  0  0  0  0  0  0  0  0  0
    7.0486    9.7555   20.2603 Cl  0  0  0  0  0  0  0  0  0  0  0  0
    5.5021    7.8048   18.4657 N   0  0  0  0  0  0  0  0  0  0  0  0
   10.2951    7.7775   20.5816 Br  0  0  0  0  0  0  0  0  0  0  0  0
    5.6349    6.5580   20.3820 C   0  0  0  0  0  0  0  0  0  0  0  0
    9.7411    9.0717   24.6552 O   0  0  0  0  0  0  0  0  0  0  0  0
   12.1533    7.3079   19.7665 S   0  0  0  0  0  0  0  0  0  0  0  0
    5.6843    8.1219   17.4285 S   0  0  0  0  0  0  0  0  0  0  0  0
   10.0816    6.6320   17.9758 F   0  0  0  0  0  0  0  0  0  0  0  0
   13.3237    9.8752   20.8186 He  0  0  0  0  0  0  0  0  0  0  0  0
   12.2864    9.0683   21.1657 He  0  0  0  0  0  0  0  0  0  0  0  0
   10.7762    7.5479   20.5997 He  0  0  0  0  0  0  0  0  0  0  0  0
    5.5868    8.4363   21.3571 He  0  0  0  0  0  0  0  0  0  0  0  0
    9.5670    9.3078   19.3857 He  0  0  0  0  0  0  0  0  0  0  0  0
    7.2360    6.8790   18.2906 He  0  0  0  0  0  0  0  0  0  0  0  0
    4.8804   10.0073   20.9398 He  0  0  0  0  0  0  0  0  0  0  0  0
    7.4185    5.7752   20.2671 He  0  0  0  0  0  0  0  0  0  0  0  0
   10.3923    8.8661   23.5768 He  0  0  0  0  0  0  0  0  0  0  0  0
    9.5972   10.5803   22.9235 He  0  0  0  0  0  0  0  0  0  0  0  0
    7.0900    6.6955   23.8774 He  0  0  0  0  0  0  0  0  0  0  0  0
   14.0601    6.4703   22.1504 He  0  0  0  0  0  0  0  0  0  0  0  0
    9.1718    7.8838   23.2858 He  0  0  0  0  0  0  0  0  0  0  0  0
  1  3  2  0
  1  5  4  0
  1  6  2  0
  1  9  3  0
  1 12  3  0
  1 13  2  0
  2  3  3  0
  2  8  2  0
  2 15  2  0
  3  7  1  0
  3 11  2  0
  3 15  2  0
  4  8  2  0
  4 10  2  0
  4 11  3  0
  4 12  4  0
  4 15  3  0
  5 11  2  0
  5 14  4  0
  6 11  2  0
  6 13  2  0
  6 15  3  0
  7  8  1  0
  7 11  4  0
  7 12  1  0
  7 13  2  0
  8  9  3  0
  8 10  2  0
  8 15  2  0
  9 10  3  0
  9 12  1  0
  9 14  3  0
  9 15  1  0
 10 13  1  0
 10 14  2  0
 12 13  2  0
M  END
$$$$

 Created by Python create_sdf_string function

 28  1  0  0  0  0  0  0  0  0999 V2000
   12.7741    9.0554   21.0574 C   0  0  0  0  0  0  0  0  0  0  0  0
    8.8997    7.0178   21.0789 C   0  0  0  0  0  0  0  0  0  0  0  0
    8.6056    4.8313   20.3935 C   0  0  0  0  0  0  0  0  0  0  0  0
   12.1993    8.7293   21.2396 C   0  0  0  0  0  0  0  0  0  0  0  0
   11.0022    7.7197   20.5466 C   0  0  0  0  0  0  0  0  0  0  0  0
    5.8889    8.6206   21.0583 C   0  0  0  0  0  0  0  0  0  0  0  0
    9.5858    8.9048   19.7874 C   0  0  0  0  0  0  0  0  0  0  0  0
    7.4498    5.5255   19.7249 C   0  0  0  0  0  0  0  0  0  0  0  0
    7.0437    6.9280   18.5701 C   0  0  0  0  0  0  0  0  0  0  0  0
    5.3470    9.5430   20.5341 C   0  0  0  0  0  0  0  0  0  0  0  0
    7.4629    5.8996   20.3984 C   0  0  0  0  0  0  0  0  0  0  0  0
    7.4659    5.7203   22.5887 C   0  0  0  0  0  0  0  0  0  0  0  0
    9.8976    8.5541   21.7494 C   0  0  0  0  0  0  0  0  0  0  0  0
    8.1547    6.0044   23.5178 C   0  0  0  0  0  0  0  0  0  0  0  0
    6.9968    9.5691   21.4149 C   0  0  0  0  0  0  0  0  0  0  0  0
    6.8411    9.4426   20.4566 C   0  0  0  0  0  0  0  0  0  0  0  0
   10.0411    8.8294   23.3229 C   0  0  0  0  0  0  0  0  0  0  0  0
    9.5612    9.8193   22.9337 C   0  0  0  0  0  0  0  0  0  0  0  0
    7.5455    6.6511   23.4442 C   0  0  0  0  0  0  0  0  0  0  0  0
   13.0767    7.3888   21.4432 C   0  0  0  0  0  0  0  0  0  0  0  0
    5.8010    7.8713   19.0157 C   0  0  0  0  0  0  0  0  0  0  0  0
    9.0441    7.9432   23.2826 C   0  0  0  0  0  0  0  0  0  0  0  0
   10.4114    7.8281   20.4148 C   0  0  0  0  0  0  0  0  0  0  0  0
    5.9868    7.0700   20.1472 C   0  0  0  0  0  0  0  0  0  0  0  0
    9.5980    8.8702   24.1039 O   0  0  0  0  0  0  0  0  0  0  0  0
   11.9172    7.4629   19.9967 C   0  0  0  0  0  0  0  0  0  0  0  0
    6.1361    7.8642   18.4578 C   0  0  0  0  0  0  0  0  0  0  0  0
    9.9078    6.8116   18.7753 C   0  0  0  0  0  0  0  0  0  0  0  0
  1  4  1  0
M  END
$$$$

 Created by Python create_sdf_string function

 28 19  0  0  0  0  0  0  0  0999 V2000
   11.2405    7.8353   20.7639 P   0  0  0  0  0  0  0  0  0  0  0  0
    4.9284    7.4685   21.3064 Cl  0  0  0  0  0  0  0  0  0  0  0  0
    8.1003    9.7391   20.8381 P   0  0  0  0  0  0  0  0  0  0  0  0
    8.4634    9.0272   24.0554 B   0  0  0  0  0  0  0  0  0  0  0  0
    7.8100    8.9952   20.9771 O   0  0  0  0  0  0  0  0  0  0  0  0
    9.4187    8.4992   23.9396 C   0  0  0  0  0  0  0  0  0  0  0  0
    6.3320    9.0819   18.1246 C   0  0  0  0  0  0  0  0  0  0  0  0
   11.1803    9.1751   21.8531 S   0  0  0  0  0  0  0  0  0  0  0  0
    5.2367    8.1293   20.0983 N   0  0  0  0  0  0  0  0  0  0  0  0
   12.5238    8.6443   22.1238 He  0  0  0  0  0  0  0  0  0  0  0  0
    7.8499    6.2756   21.5236 He  0  0  0  0  0  0  0  0  0  0  0  0
    9.3525    6.4781   19.5461 He  0  0  0  0  0  0  0  0  0  0  0  0
   10.6147    8.6474   21.7830 He  0  0  0  0  0  0  0  0  0  0  0  0
   10.3864    9.0009   20.3629 He  0  0  0  0  0  0  0  0  0  0  0  0
    6.8109    5.8445   19.6949 He  0  0  0  0  0  0  0  0  0  0  0  0
    6.9549    7.4030   17.7349 He  0  0  0  0  0  0  0  0  0  0  0  0
    6.3017    5.0190   20.6638 He  0  0  0  0  0  0  0  0  0  0  0  0
    6.9029    6.3747   23.9731 He  0  0  0  0  0  0  0  0  0  0  0  0
    9.0879    7.3698   22.9781 He  0  0  0  0  0  0  0  0  0  0  0  0
    6.1331    9.1070   20.2448 He  0  0  0  0  0  0  0  0  0  0  0  0
    9.5746    7.4307   22.2523 He  0  0  0  0  0  0  0  0  0  0  0  0
    7.1102    9.2213   25.3567 He  0  0  0  0  0  0  0  0  0  0  0  0
   13.2348    7.8320   21.1652 He  0  0  0  0  0  0  0  0  0  0  0  0
    9.7353    8.7803   25.1061 He  0  0  0  0  0  0  0  0  0  0  0  0
    9.9153    9.5663   21.8279 He  0  0  0  0  0  0  0  0  0  0  0  0
   12.7715    7.4670   19.8846 He  0  0  0  0  0  0  0  0  0  0  0  0
    5.9005    7.3152   19.3274 He  0  0  0  0  0  0  0  0  0  0  0  0
    8.2237    5.7258   20.9222 He  0  0  0  0  0  0  0  0  0  0  0  0
  1  2  4  0
  1  4  2  0
  1  5  4  0
  1  6  2  0
  1  9  4  0
  2  9  4  0
  3  5  3  0
  3  6  1  0
  3  7  4  0
  3  8  3  0
  4  6  2  0
  4  7  3  0
  4  8  4  0
  5  7  3  0
  5  8  3  0
  5  9  3  0
  6  9  1  0
  7  8  2  0
  7  9  1  0
M  END
$$$$

 Created by Python create_sdf_string function

 28  1  0  0  0  0  0  0  0  0999 V2000
   12.3740    8.6157   21.9267 C   0  0  0  0  0  0  0  0  0  0  0  0
    7.7029    6.2161   21.6301 C   0  0  0  0  0  0  0  0  0  0  0  0
    9.2459    6.7025   19.8714 C   0  0  0  0  0  0  0  0  0  0  0  0
   10.6495    8.7192   21.8471 C   0  0  0  0  0  0  0  0  0  0  0  0
   11.4419    7.8488   20.5312 C   0  0  0  0  0  0  0  0  0  0  0  0
    5.3548    7.3932   20.8623 C   0  0  0  0  0  0  0  0  0  0  0  0
   10.3480    8.9031   20.4217 C   0  0  0  0  0  0  0  0  0  0  0  0
    6.7158    6.1549   19.7116 C   0  0  0  0  0  0  0  0  0  0  0  0
    6.8073    7.3490   18.2902 C   0  0  0  0  0  0  0  0  0  0  0  0
    8.1027    9.6603   20.7356 C   0  0  0  0  0  0  0  0  0  0  0  0
    6.5697    5.4897   20.7162 C   0  0  0  0  0  0  0  0  0  0  0  0
    7.3662    6.8511   23.6858 C   0  0  0  0  0  0  0  0  0  0  0  0
    8.4107    8.7746   24.2658 C   0  0  0  0  0  0  0  0  0  0  0  0
    8.7851    7.3348   23.0885 C   0  0  0  0  0  0  0  0  0  0  0  0
    6.2594    8.9848   19.9802 C   0  0  0  0  0  0  0  0  0  0  0  0
    7.8156    9.1558   20.7596 C   0  0  0  0  0  0  0  0  0  0  0  0
    9.3710    7.4744   22.4816 C   0  0  0  0  0  0  0  0  0  0  0  0
    9.2136    8.5178   23.9849 C   0  0  0  0  0  0  0  0  0  0  0  0
    7.5788    8.8156   24.9190 O   0  0  0  0  0  0  0  0  0  0  0  0
   12.8747    7.9905   21.0446 C   0  0  0  0  0  0  0  0  0  0  0  0
    6.4926    8.8121   18.6869 C   0  0  0  0  0  0  0  0  0  0  0  0
    9.4584    8.7509   24.8177 O   0  0  0  0  0  0  0  0  0  0  0  0
   11.2959    9.0692   21.8800 C   0  0  0  0  0  0  0  0  0  0  0  0
    5.5406    8.0516   19.7593 C   0  0  0  0  0  0  0  0  0  0  0  0
    9.7335    9.5429   21.7834 C   0  0  0  0  0  0  0  0  0  0  0  0
   12.4179    7.5410   20.0723 C   0  0  0  0  0  0  0  0  0  0  0  0
    6.0024    7.3709   19.2875 C   0  0  0  0  0  0  0  0  0  0  0  0
    7.9919    5.8248   21.0609 C   0  0  0  0  0  0  0  0  0  0  0  0
 13 19  1  0
M  END
$$$$

 Created by Python create_sdf_string function

 28 18  0  0  0  0  0  0  0  0999 V2000
    8.2743    7.8934   20.6675 Cl  0  0  0  0  0  0  0  0  0  0  0  0
   10.4055   11.0903   19.8300 S   0  0  0  0  0  0  0  0  0  0  0  0
   10.8798    9.3594   21.9081 C   0  0  0  0  0  0  0  0  0  0  0  0
    6.3223    6.7988   19.9268 C   0  0  0  0  0  0  0  0  0  0  0  0
    6.4914    8.2770   23.3219 B   0  0  0  0  0  0  0  0  0  0  0  0
   10.6300    8.9823   23.5903 Cl  0  0  0  0  0  0  0  0  0  0  0  0
    6.4476    9.2794   21.2155 F   0  0  0  0  0  0  0  0  0  0  0  0
    9.1399    7.8597   25.4046 O   0  0  0  0  0  0  0  0  0  0  0  0
    9.4288    9.0450   25.3382 O   0  0  0  0  0  0  0  0  0  0  0  0
    5.6639    7.0213   20.6852 C   0  0  0  0  0  0  0  0  0  0  0  0
   14.1983    6.4135   20.4497 O   0  0  0  0  0  0  0  0  0  0  0  0
   13.2775    8.7168   23.4716 He  0  0  0  0  0  0  0  0  0  0  0  0
    7.8848    6.1258   23.5625 He  0  0  0  0  0  0  0  0  0  0  0  0
    9.9684    8.1331   19.7295 He  0  0  0  0  0  0  0  0  0  0  0  0
    5.6456    8.3890   20.5097 He  0  0  0  0  0  0  0  0  0  0  0  0
    6.7526    8.9214   17.3949 He  0  0  0  0  0  0  0  0  0  0  0  0
    8.8612    8.9599   21.6977 He  0  0  0  0  0  0  0  0  0  0  0  0
    6.1558    6.8075   20.9628 He  0  0  0  0  0  0  0  0  0  0  0  0
    9.1679    8.8473   22.9172 He  0  0  0  0  0  0  0  0  0  0  0  0
    5.8039    9.0019   20.2579 He  0  0  0  0  0  0  0  0  0  0  0  0
    9.1180    8.7975   21.8998 He  0  0  0  0  0  0  0  0  0  0  0  0
    7.2817    8.9125   25.4899 He  0  0  0  0  0  0  0  0  0  0  0  0
   12.8736    8.5087   20.6231 He  0  0  0  0  0  0  0  0  0  0  0  0
    6.0587    9.0809   18.0804 He  0  0  0  0  0  0  0  0  0  0  0  0
   10.1643    9.9438   23.0495 He  0  0  0  0  0  0  0  0  0  0  0  0
    9.2551   10.3075   21.1844 He  0  0  0  0  0  0  0  0  0  0  0  0
    6.0162    7.5692   19.8493 He  0  0  0  0  0  0  0  0  0  0  0  0
    8.5435    4.5624   22.0430 He  0  0  0  0  0  0  0  0  0  0  0  0
  1  3  2  0
  1  4  4  0
  1  9  2  0
  2  3  4  0
  2  8  4  0
  2 11  2  0
  3 10  1  0
  4  7  3  0
  4 10  4  0
  4 11  3  0
  5  7  4  0
  5  8  2  0
  6  9  2  0
  6 11  1  0
  7  8  4  0
  7  9  3  0
  7 11  3  0
  9 10  3  0
M  END
$$$$

 Created by Python create_sdf_string function

 28  1  0  0  0  0  0  0  0  0999 V2000
   12.6667    8.6268   22.6471 O   0  0  0  0  0  0  0  0  0  0  0  0
    7.9715    6.7014   23.4162 C   0  0  0  0  0  0  0  0  0  0  0  0
    8.3012    7.8115   20.6488 C   0  0  0  0  0  0  0  0  0  0  0  0
   10.3152   10.3649   20.1439 C   0  0  0  0  0  0  0  0  0  0  0  0
   10.2956    8.4334   20.1037 C   0  0  0  0  0  0  0  0  0  0  0  0
    5.7824    8.4830   20.2952 C   0  0  0  0  0  0  0  0  0  0  0  0
   11.2167    9.1126   21.6400 C   0  0  0  0  0  0  0  0  0  0  0  0
    6.3712    6.9424   19.9766 C   0  0  0  0  0  0  0  0  0  0  0  0
    6.9727    8.7291   18.0796 O   0  0  0  0  0  0  0  0  0  0  0  0
    9.0273    8.7599   21.8126 C   0  0  0  0  0  0  0  0  0  0  0  0
    6.2324    6.7622   21.0714 C   0  0  0  0  0  0  0  0  0  0  0  0
    6.8882    8.1828   23.3575 C   0  0  0  0  0  0  0  0  0  0  0  0
   10.7617    8.9394   23.3676 C   0  0  0  0  0  0  0  0  0  0  0  0
    9.2274    8.7305   23.1709 C   0  0  0  0  0  0  0  0  0  0  0  0
    5.9192    9.0310   19.9197 C   0  0  0  0  0  0  0  0  0  0  0  0
    6.4802    9.2656   21.1462 C   0  0  0  0  0  0  0  0  0  0  0  0
    9.3220    8.7090   21.8759 C   0  0  0  0  0  0  0  0  0  0  0  0
    8.8782    7.9906   25.0408 O   0  0  0  0  0  0  0  0  0  0  0  0
    7.7511    8.5297   25.0007 O   0  0  0  0  0  0  0  0  0  0  0  0
   12.4284    8.4530   21.0034 C   0  0  0  0  0  0  0  0  0  0  0  0
    6.2337    9.0803   18.6295 C   0  0  0  0  0  0  0  0  0  0  0  0
    9.3392    8.8763   25.0318 O   0  0  0  0  0  0  0  0  0  0  0  0
   10.3296    9.6794   23.1100 C   0  0  0  0  0  0  0  0  0  0  0  0
    5.9647    7.0680   20.6921 C   0  0  0  0  0  0  0  0  0  0  0  0
    9.6004   10.0998   20.9442 C   0  0  0  0  0  0  0  0  0  0  0  0
   12.8522    7.5966   20.8498 O   0  0  0  0  0  0  0  0  0  0  0  0
    6.1288    7.6784   19.6194 C   0  0  0  0  0  0  0  0  0  0  0  0
    8.1676    5.7360   22.0614 C   0  0  0  0  0  0  0  0  0  0  0  0
 20 26  1  0
M  END
$$$$

 Created by Python create_sdf_string function

 28 42  0  0  0  0  0  0  0  0999 V2000
   13.6909   10.4239   22.7918 O   0  0  0  0  0  0  0  0  0  0  0  0
    8.2553    8.8240   20.9539 C   0  0  0  0  0  0  0  0  0  0  0  0
   10.2370    8.3248   21.1605 F   0  0  0  0  0  0  0  0  0  0  0  0
    6.2153    7.7635   19.1288 F   0  0  0  0  0  0  0  0  0  0  0  0
    6.4813    9.2715   19.2371 C   0  0  0  0  0  0  0  0  0  0  0  0
    7.8270    5.3589   20.2967 C   0  0  0  0  0  0  0  0  0  0  0  0
    5.7275    7.0480   25.5363 Cl  0  0  0  0  0  0  0  0  0  0  0  0
    6.5918   10.0894   21.1592 Cl  0  0  0  0  0  0  0  0  0  0  0  0
    9.7637    7.7666   26.5699 Se  0  0  0  0  0  0  0  0  0  0  0  0
    8.1881    6.9056   25.0382 F   0  0  0  0  0  0  0  0  0  0  0  0
    6.1112    7.7057   17.8072 O   0  0  0  0  0  0  0  0  0  0  0  0
    8.7865   10.0869   25.6782 N   0  0  0  0  0  0  0  0  0  0  0  0
    9.0860    8.8430   24.5026 P   0  0  0  0  0  0  0  0  0  0  0  0
    5.4652    6.6017   22.0544 F   0  0  0  0  0  0  0  0  0  0  0  0
    9.0439   11.5250   18.9803 C   0  0  0  0  0  0  0  0  0  0  0  0
   13.1350    6.8542   20.6541 F   0  0  0  0  0  0  0  0  0  0  0  0
    7.1155    5.9130   22.6391 He  0  0  0  0  0  0  0  0  0  0  0  0
   10.1826    8.9708   18.6677 He  0  0  0  0  0  0  0  0  0  0  0  0
    6.9651    8.1925   20.1448 He  0  0  0  0  0  0  0  0  0  0  0  0
   10.7372    8.1899   23.6642 He  0  0  0  0  0  0  0  0  0  0  0  0
    8.3304    7.0464   22.1561 He  0  0  0  0  0  0  0  0  0  0  0  0
   10.8616    9.6189   24.6725 He  0  0  0  0  0  0  0  0  0  0  0  0
   10.1869    9.2972   22.2632 He  0  0  0  0  0  0  0  0  0  0  0  0
    5.5138    8.9742   20.3665 He  0  0  0  0  0  0  0  0  0  0  0  0
    7.8755    8.7371   20.7413 He  0  0  0  0  0  0  0  0  0  0  0  0
   13.0556    8.7783   20.8644 He  0  0  0  0  0  0  0  0  0  0  0  0
    7.5528    6.8587   19.1007 He  0  0  0  0  0  0  0  0  0  0  0  0
    7.0677    6.3571   21.3020 He  0  0  0  0  0  0  0  0  0  0  0  0
  1  6  2  0
  1  7  1  0
  1 12  1  0
  1 13  2  0
  1 16  3  0
  2  5  1  0
  2  6  1  0
  3 11  2  0
  4  5  3  0
  4  6  3  0
  4  9  4  0
  4 10  1  0
  4 11  3  0
  4 12  3  0
  4 13  1  0
  4 15  4  0
  5  8  3  0
  5  9  1  0
  5 10  4  0
  5 14  2  0
  5 15  3  0
  6  8  1  0
  6 10  2  0
  6 12  2  0
  6 13  3  0
  7  9  3  0
  7 14  4  0
  8  9  4  0
  8 10  1  0
  8 11  4  0
  8 13  3  0
  9 12  1  0
  9 15  2  0
 10 14  2  0
 10 16  1  0
 11 14  4  0
 11 16  3  0
 13 14  4  0
 13 15  2  0
 14 15  3  0
 14 16  3  0
 15 16  4  0
M  END
$$$$

 Created by Python create_sdf_string function

 28  1  0  0  0  0  0  0  0  0999 V2000
   12.8484    9.4001   22.3422 O   0  0  0  0  0  0  0  0  0  0  0  0
    7.0690    6.3133   22.8860 C   0  0  0  0  0  0  0  0  0  0  0  0
    8.7301    9.0124   20.8825 C   0  0  0  0  0  0  0  0  0  0  0  0
   10.0539    9.1490   19.4715 C   0  0  0  0  0  0  0  0  0  0  0  0
   10.5826    8.6779   21.2175 C   0  0  0  0  0  0  0  0  0  0  0  0
    6.8996    8.3246   19.9199 C   0  0  0  0  0  0  0  0  0  0  0  0
   10.5933    8.5075   23.2867 C   0  0  0  0  0  0  0  0  0  0  0  0
    6.1847    7.6870   19.1103 C   0  0  0  0  0  0  0  0  0  0  0  0
    6.7222    9.4212   19.3557 C   0  0  0  0  0  0  0  0  0  0  0  0
    8.1793    7.2215   22.6408 C   0  0  0  0  0  0  0  0  0  0  0  0
    7.4650    6.0580   20.7271 C   0  0  0  0  0  0  0  0  0  0  0  0
    6.5350    6.8464   24.7075 O   0  0  0  0  0  0  0  0  0  0  0  0
   10.4982    9.2263   24.3740 O   0  0  0  0  0  0  0  0  0  0  0  0
   10.3916    9.0374   22.2454 C   0  0  0  0  0  0  0  0  0  0  0  0
    5.7373    8.9380   20.0233 C   0  0  0  0  0  0  0  0  0  0  0  0
    6.8420   10.0370   20.7984 C   0  0  0  0  0  0  0  0  0  0  0  0
    8.0637    8.9717   20.6036 C   0  0  0  0  0  0  0  0  0  0  0  0
    9.4524    7.9939   25.8306 O   0  0  0  0  0  0  0  0  0  0  0  0
    8.2467    7.3422   24.6605 O   0  0  0  0  0  0  0  0  0  0  0  0
   12.3407    8.7251   21.3112 O   0  0  0  0  0  0  0  0  0  0  0  0
    6.3302    7.5037   18.3201 O   0  0  0  0  0  0  0  0  0  0  0  0
    9.0030    9.3093   25.2889 O   0  0  0  0  0  0  0  0  0  0  0  0
    9.2283    8.4875   24.5111 P   0  0  0  0  0  0  0  0  0  0  0  0
    6.0335    6.6445   22.2745 C   0  0  0  0  0  0  0  0  0  0  0  0
    8.8287   10.6235   19.4476 O   0  0  0  0  0  0  0  0  0  0  0  0
   12.4567    7.9151   20.9225 O   0  0  0  0  0  0  0  0  0  0  0  0
    7.2558    7.0133   19.2644 C   0  0  0  0  0  0  0  0  0  0  0  0
    6.9854    6.4360   21.6054 C   0  0  0  0  0  0  0  0  0  0  0  0
 20 26  1  0
M  END
$$$$

 Created by Python create_sdf_string function

 28 67  0  0  0  0  0  0  0  0999 V2000
   12.9810    8.9845   22.8390 O   0  0  0  0  0  0  0  0  0  0  0  0
    6.7439    4.9896   22.0248 C   0  0  0  0  0  0  0  0  0  0  0  0
    8.8335    8.3422   21.2146 F   0  0  0  0  0  0  0  0  0  0  0  0
   11.1140    8.3096   19.3024 O   0  0  0  0  0  0  0  0  0  0  0  0
    9.8971    9.3827   22.4608 C   0  0  0  0  0  0  0  0  0  0  0  0
   12.7446    8.7383   23.6374 Se  0  0  0  0  0  0  0  0  0  0  0  0
    7.3645    9.7028   20.4643 C   0  0  0  0  0  0  0  0  0  0  0  0
    7.8786    8.0834   22.4606 O   0  0  0  0  0  0  0  0  0  0  0  0
    6.6372    8.6953   20.9801 F   0  0  0  0  0  0  0  0  0  0  0  0
    8.5886    9.0245   21.2047 Cl  0  0  0  0  0  0  0  0  0  0  0  0
    8.3810    6.8661   24.3713 O   0  0  0  0  0  0  0  0  0  0  0  0
    6.3827    5.9749   19.0889 S   0  0  0  0  0  0  0  0  0  0  0  0
    9.5574    8.4398   25.0135 O   0  0  0  0  0  0  0  0  0  0  0  0
   10.5030    8.7779   23.9930 S   0  0  0  0  0  0  0  0  0  0  0  0
    4.8830    5.6083   21.1237 C   0  0  0  0  0  0  0  0  0  0  0  0
    9.9008    9.1467   17.1770 O   0  0  0  0  0  0  0  0  0  0  0  0
   13.1471    8.2529   20.8949 C   0  0  0  0  0  0  0  0  0  0  0  0
    5.9505    8.4854   22.2616 P   0  0  0  0  0  0  0  0  0  0  0  0
    6.8588    7.1013   20.1503 He  0  0  0  0  0  0  0  0  0  0  0  0
    6.3103    8.0840   19.7497 He  0  0  0  0  0  0  0  0  0  0  0  0
    7.2412    8.2560   22.0515 He  0  0  0  0  0  0  0  0  0  0  0  0
    7.0450    7.7172   25.9406 He  0  0  0  0  0  0  0  0  0  0  0  0
   11.8249    9.7444   24.2292 He  0  0  0  0  0  0  0  0  0  0  0  0
   10.4205    8.3255   22.8666 He  0  0  0  0  0  0  0  0  0  0  0  0
    4.0172    8.9589   19.7122 He  0  0  0  0  0  0  0  0  0  0  0  0
   10.3759    9.0729   23.9010 He  0  0  0  0  0  0  0  0  0  0  0  0
   11.2490    7.4665   19.5591 He  0  0  0  0  0  0  0  0  0  0  0  0
    5.9635    8.0662   19.3465 He  0  0  0  0  0  0  0  0  0  0  0  0
  1  3  2  0
  1  4  3  0
  1  5  4  0
  1  7  3  0
  1  8  1  0
  1  9  3  0
  1 10  3  0
  1 11  1  0
  1 12  1  0
  1 13  2  0
  1 14  1  0
  1 16  4  0
  2  7  3  0
  2  8  1  0
  2  9  2  0
  2 10  3  0
  2 11  2  0
  2 16  3  0
  2 17  3  0
  3  6  3  0
  3 12  1  0
  3 13  3  0
  3 14  4  0
  3 15  3  0
  4  5  2  0
  4 10  3  0
  4 12  4  0
  4 13  2  0
  4 14  1  0
  5  6  2  0
  5  9  2  0
  5 12  4  0
  5 13  2  0
  5 14  2  0
  5 16  2  0
  5 17  1  0
  5 18  2  0
  6  7  3  0
  6  9  1  0
  6 11  4  0
  6 15  4  0
  6 18  1  0
  7  9  4  0
  7 10  4  0
  7 14  4  0
  7 17  2  0
  7 18  2  0
  8 12  3  0
  8 17  3  0
  9 11  1  0
  9 13  1  0
  9 18  4  0
 10 13  1  0
 10 16  1  0
 10 17  2  0
 11 14  4  0
 11 15  2  0
 11 16  2  0
 11 17  4  0
 12 14  2  0
 12 15  2  0
 12 16  2  0
 12 17  2  0
 14 18  1  0
 15 16  4  0
 16 17  3  0
 16 18  1  0
M  END
$$$$

 Created by Python create_sdf_string function

 28  1  0  0  0  0  0  0  0  0999 V2000
   12.6449    8.9058   22.7680 O   0  0  0  0  0  0  0  0  0  0  0  0
    6.5115    6.0010   21.8913 C   0  0  0  0  0  0  0  0  0  0  0  0
    9.1052    8.5524   21.0263 C   0  0  0  0  0  0  0  0  0  0  0  0
   10.8064    8.4017   19.4690 C   0  0  0  0  0  0  0  0  0  0  0  0
   10.1597    9.0000   22.3444 C   0  0  0  0  0  0  0  0  0  0  0  0
    6.5149    7.2066   20.1630 C   0  0  0  0  0  0  0  0  0  0  0  0
   12.5450    8.8715   23.3965 O   0  0  0  0  0  0  0  0  0  0  0  0
    5.9136    8.0188   19.6136 C   0  0  0  0  0  0  0  0  0  0  0  0
    7.4161    9.4418   20.3134 C   0  0  0  0  0  0  0  0  0  0  0  0
    7.8894    7.9950   22.8533 C   0  0  0  0  0  0  0  0  0  0  0  0
    7.2832    8.1566   22.1940 C   0  0  0  0  0  0  0  0  0  0  0  0
    7.4873    7.6901   25.1860 O   0  0  0  0  0  0  0  0  0  0  0  0
   11.8568    9.4856   24.1330 O   0  0  0  0  0  0  0  0  0  0  0  0
   10.5211    8.5228   22.8836 C   0  0  0  0  0  0  0  0  0  0  0  0
    4.4671    8.6615   19.3825 O   0  0  0  0  0  0  0  0  0  0  0  0
    6.5073    8.5956   20.8499 C   0  0  0  0  0  0  0  0  0  0  0  0
    8.7425    8.8997   20.8619 C   0  0  0  0  0  0  0  0  0  0  0  0
   10.2585    8.8806   23.8758 C   0  0  0  0  0  0  0  0  0  0  0  0
    8.1300    7.3242   24.4258 O   0  0  0  0  0  0  0  0  0  0  0  0
   11.0426    8.1538   19.5900 C   0  0  0  0  0  0  0  0  0  0  0  0
    6.0405    6.5037   19.3037 C   0  0  0  0  0  0  0  0  0  0  0  0
    9.2829    8.3088   24.9581 O   0  0  0  0  0  0  0  0  0  0  0  0
   10.5482    8.7981   23.9492 C   0  0  0  0  0  0  0  0  0  0  0  0
    5.3988    6.2323   20.8442 C   0  0  0  0  0  0  0  0  0  0  0  0
    9.7863    8.6848   18.4380 O   0  0  0  0  0  0  0  0  0  0  0  0
   12.3382    8.4293   21.0415 C   0  0  0  0  0  0  0  0  0  0  0  0
    5.7871    8.0559   19.3455 C   0  0  0  0  0  0  0  0  0  0  0  0
    5.9559    8.3413   22.0254 C   0  0  0  0  0  0  0  0  0  0  0  0
  4 20  1  0
M  END
$$$$

 Created by Python create_sdf_string function

 28 27  0  0  0  0  0  0  0  0999 V2000
   12.8561    6.8329   21.8079 F   0  0  0  0  0  0  0  0  0  0  0  0
    6.7815    5.2383   21.8519 C   0  0  0  0  0  0  0  0  0  0  0  0
    9.8595    8.3440   21.1512 F   0  0  0  0  0  0  0  0  0  0  0  0
   10.6919    8.3295   22.4194 C   0  0  0  0  0  0  0  0  0  0  0  0
   12.9111    7.7656   24.1678 N   0  0  0  0  0  0  0  0  0  0  0  0
    9.4053   10.3700   23.7955 F   0  0  0  0  0  0  0  0  0  0  0  0
    7.5037    7.6097   22.2406 Cl  0  0  0  0  0  0  0  0  0  0  0  0
    9.8151    9.3013   21.4782 Cl  0  0  0  0  0  0  0  0  0  0  0  0
    3.6929    8.0736   20.4320 Cl  0  0  0  0  0  0  0  0  0  0  0  0
    6.7863    8.4622   17.6458 C   0  0  0  0  0  0  0  0  0  0  0  0
    5.8554    6.8708   20.0619 P   0  0  0  0  0  0  0  0  0  0  0  0
   10.8910    7.6562   20.5914 C   0  0  0  0  0  0  0  0  0  0  0  0
    6.1591    7.1646   19.6003 C   0  0  0  0  0  0  0  0  0  0  0  0
   10.3527    6.3537   19.8518 He  0  0  0  0  0  0  0  0  0  0  0  0
    8.3636    4.4736   19.2638 He  0  0  0  0  0  0  0  0  0  0  0  0
    6.7841   10.2345   22.0858 He  0  0  0  0  0  0  0  0  0  0  0  0
    7.2246    8.6018   20.7785 He  0  0  0  0  0  0  0  0  0  0  0  0
    8.9630    7.2847   26.9385 He  0  0  0  0  0  0  0  0  0  0  0  0
   11.2267    8.3529   23.6492 He  0  0  0  0  0  0  0  0  0  0  0  0
    6.4468    8.2466   20.3193 He  0  0  0  0  0  0  0  0  0  0  0  0
    8.9153    9.6944   19.5283 He  0  0  0  0  0  0  0  0  0  0  0  0
   11.0275    6.8111   23.3347 He  0  0  0  0  0  0  0  0  0  0  0  0
    9.8903    6.8140   23.5989 He  0  0  0  0  0  0  0  0  0  0  0  0
   12.0538    9.2532   20.2735 He  0  0  0  0  0  0  0  0  0  0  0  0
    9.6507    9.3337   25.4522 He  0  0  0  0  0  0  0  0  0  0  0  0
   11.9568    9.3151   23.7167 He  0  0  0  0  0  0  0  0  0  0  0  0
   10.5673    9.9265   19.4323 He  0  0  0  0  0  0  0  0  0  0  0  0
    5.6411   10.0718   23.6848 He  0  0  0  0  0  0  0  0  0  0  0  0
  1  7  1  0
  1  8  1  0
  1 12  1  0
  2  7  4  0
  2  9  3  0
  2 13  3  0
  3  4  2  0
  3  5  1  0
  3  6  2  0
  3  9  1  0
  3 11  3  0
  4  5  3  0
  4  6  1  0
  4  9  1  0
  4 10  2  0
  4 13  3  0
  5  7  2  0
  5 12  1  0
  5 13  1  0
  6 11  3  0
  7 11  4  0
  8 10  3  0
  8 11  1  0
  8 12  2  0
  9 10  3  0
  9 13  4  0
 11 13  4  0
M  END
$$$$

 Created by Python create_sdf_string function

 28  0  0  0  0  0  0  0  0  0999 V2000
   12.2083    7.1518   21.7845 C   0  0  0  0  0  0  0  0  0  0  0  0
    7.0380    6.1798   21.2361 C   0  0  0  0  0  0  0  0  0  0  0  0
    9.8436    8.4703   20.9486 C   0  0  0  0  0  0  0  0  0  0  0  0
   10.1359    6.6596   20.0461 C   0  0  0  0  0  0  0  0  0  0  0  0
   10.6547    8.3764   22.5694 C   0  0  0  0  0  0  0  0  0  0  0  0
    8.2849    5.8143   19.8379 C   0  0  0  0  0  0  0  0  0  0  0  0
   12.3984    7.6850   24.0449 O   0  0  0  0  0  0  0  0  0  0  0  0
    7.0298    9.6368   22.1890 C   0  0  0  0  0  0  0  0  0  0  0  0
    7.0866    8.5095   20.8235 C   0  0  0  0  0  0  0  0  0  0  0  0
    9.2082    9.6391   23.8894 C   0  0  0  0  0  0  0  0  0  0  0  0
    7.3697    7.7831   22.0741 C   0  0  0  0  0  0  0  0  0  0  0  0
    9.4150    7.5947   25.7333 O   0  0  0  0  0  0  0  0  0  0  0  0
   11.0575    8.2138   23.9098 C   0  0  0  0  0  0  0  0  0  0  0  0
    9.7108    9.3574   21.3591 C   0  0  0  0  0  0  0  0  0  0  0  0
    4.6906    8.0744   20.1309 C   0  0  0  0  0  0  0  0  0  0  0  0
    6.3921    8.3270   20.1937 C   0  0  0  0  0  0  0  0  0  0  0  0
    9.0918    9.5445   19.7778 C   0  0  0  0  0  0  0  0  0  0  0  0
   11.1386    7.0593   23.5708 C   0  0  0  0  0  0  0  0  0  0  0  0
    9.9782    7.2161   24.0031 C   0  0  0  0  0  0  0  0  0  0  0  0
   11.6067    8.9519   20.2975 C   0  0  0  0  0  0  0  0  0  0  0  0
    6.6496    8.0411   18.6113 C   0  0  0  0  0  0  0  0  0  0  0  0
    9.6533    8.9977   24.9452 C   0  0  0  0  0  0  0  0  0  0  0  0
   11.6765    9.0124   23.7880 C   0  0  0  0  0  0  0  0  0  0  0  0
    5.9994    7.1939   19.9280 C   0  0  0  0  0  0  0  0  0  0  0  0
   10.5053    9.5092   19.7088 C   0  0  0  0  0  0  0  0  0  0  0  0
   10.8544    7.6352   20.4808 C   0  0  0  0  0  0  0  0  0  0  0  0
    6.2625    7.2999   19.5788 C   0  0  0  0  0  0  0  0  0  0  0  0
    6.4550    9.6441   23.0208 O   0  0  0  0  0  0  0  0  0  0  0  0
M  END
$$$$

 Created by Python create_sdf_string function

 28 51  0  0  0  0  0  0  0  0999 V2000
   12.2389    6.0920   22.4757 F   0  0  0  0  0  0  0  0  0  0  0  0
    7.0966    5.5073   21.3480 S   0  0  0  0  0  0  0  0  0  0  0  0
   11.0375    8.1103   20.6294 B   0  0  0  0  0  0  0  0  0  0  0  0
    9.9730    6.4570   20.3803 F   0  0  0  0  0  0  0  0  0  0  0  0
    8.0790    6.4855   20.7650 F   0  0  0  0  0  0  0  0  0  0  0  0
   11.6846    8.7477   22.8526 N   0  0  0  0  0  0  0  0  0  0  0  0
    6.4014    8.7900   19.8427 O   0  0  0  0  0  0  0  0  0  0  0  0
    8.8262    7.2520   27.0216 O   0  0  0  0  0  0  0  0  0  0  0  0
   10.4912    7.9054   22.9918 N   0  0  0  0  0  0  0  0  0  0  0  0
   11.8290    7.7347   25.6108 Br  0  0  0  0  0  0  0  0  0  0  0  0
   10.1863    7.0957   23.4653 C   0  0  0  0  0  0  0  0  0  0  0  0
    6.4721    7.4297   20.4298 C   0  0  0  0  0  0  0  0  0  0  0  0
   13.1479    9.3606   24.1789 N   0  0  0  0  0  0  0  0  0  0  0  0
    9.4369    9.5323   19.6493 S   0  0  0  0  0  0  0  0  0  0  0  0
    5.2170    6.7633   20.7182 C   0  0  0  0  0  0  0  0  0  0  0  0
   11.6404    6.9736   21.3994 He  0  0  0  0  0  0  0  0  0  0  0  0
    5.1203   11.0249   21.8461 He  0  0  0  0  0  0  0  0  0  0  0  0
    9.2479    9.2800   23.5367 He  0  0  0  0  0  0  0  0  0  0  0  0
    8.2207    7.6559   23.2269 He  0  0  0  0  0  0  0  0  0  0  0  0
   10.1956    8.4136   21.2048 He  0  0  0  0  0  0  0  0  0  0  0  0
    5.3608    7.1195   20.2237 He  0  0  0  0  0  0  0  0  0  0  0  0
    5.2378    7.2919   17.9291 He  0  0  0  0  0  0  0  0  0  0  0  0
   11.0355    8.2899   18.6573 He  0  0  0  0  0  0  0  0  0  0  0  0
   10.6065    9.4418   21.1078 He  0  0  0  0  0  0  0  0  0  0  0  0
   10.3796   10.0464   23.5260 He  0  0  0  0  0  0  0  0  0  0  0  0
    6.1852    6.6672   20.2500 He  0  0  0  0  0  0  0  0  0  0  0  0
   12.2113    7.4891   20.1536 He  0  0  0  0  0  0  0  0  0  0  0  0
    5.0790   11.2795   22.6808 He  0  0  0  0  0  0  0  0  0  0  0  0
  1  2  2  0
  1  3  2  0
  1  4  2  0
  1  7  3  0
  1 10  4  0
  1 11  2  0
  1 13  4  0
  1 14  4  0
  1 15  2  0
  2  4  1  0
  2  5  3  0
  2  7  4  0
  2 11  3  0
  2 14  1  0
  3  4  4  0
  3 10  3  0
  3 11  3  0
  3 12  3  0
  3 13  4  0
  4  5  4  0
  4  7  2  0
  4 11  4  0
  4 14  1  0
  4 15  1  0
  5  6  4  0
  5  7  1  0
  5 11  1  0
  5 12  3  0
  5 13  1  0
  6  8  3  0
  6  9  3  0
  6 12  3  0
  6 15  3  0
  7  8  4  0
  7 14  4  0
  8 10  3  0
  8 11  3  0
  8 15  4  0
  9 10  3  0
  9 11  2  0
  9 12  1  0
  9 14  3  0
 10 12  4  0
 10 14  1  0
 10 15  2  0
 11 12  1  0
 11 14  3  0
 11 15  4  0
 13 14  4  0
 13 15  1  0
 14 15  2  0
M  END
$$$$

 Created by Python create_sdf_string function

 28  2  0  0  0  0  0  0  0  0999 V2000
   12.0376    6.6417   22.4862 C   0  0  0  0  0  0  0  0  0  0  0  0
    7.3053    6.1714   21.1810 C   0  0  0  0  0  0  0  0  0  0  0  0
   10.9238    8.1043   20.4286 C   0  0  0  0  0  0  0  0  0  0  0  0
    9.8143    6.7489   20.3952 C   0  0  0  0  0  0  0  0  0  0  0  0
   11.5064    7.2361   21.2888 C   0  0  0  0  0  0  0  0  0  0  0  0
    7.9587    6.7621   20.7472 C   0  0  0  0  0  0  0  0  0  0  0  0
   11.6369    8.6366   23.1149 C   0  0  0  0  0  0  0  0  0  0  0  0
    5.8101    9.8694   21.5309 C   0  0  0  0  0  0  0  0  0  0  0  0
    6.3262    8.9735   20.2949 C   0  0  0  0  0  0  0  0  0  0  0  0
    9.1648    8.8493   23.6454 C   0  0  0  0  0  0  0  0  0  0  0  0
    8.4012    8.0326   23.4001 C   0  0  0  0  0  0  0  0  0  0  0  0
    9.3129    7.5499   25.5805 O   0  0  0  0  0  0  0  0  0  0  0  0
   10.4600    7.9840   23.3423 C   0  0  0  0  0  0  0  0  0  0  0  0
   10.1760    8.4661   20.9547 C   0  0  0  0  0  0  0  0  0  0  0  0
    5.4268    7.6106   20.1586 C   0  0  0  0  0  0  0  0  0  0  0  0
    5.5063    7.2889   18.9560 C   0  0  0  0  0  0  0  0  0  0  0  0
   10.9494    8.2479   19.0055 C   0  0  0  0  0  0  0  0  0  0  0  0
   11.3983    7.8451   25.0430 O   0  0  0  0  0  0  0  0  0  0  0  0
   10.1645    7.2654   23.7601 C   0  0  0  0  0  0  0  0  0  0  0  0
   10.5819    9.3069   21.2274 C   0  0  0  0  0  0  0  0  0  0  0  0
    6.5628    7.8757   20.5564 C   0  0  0  0  0  0  0  0  0  0  0  0
   10.3042    9.5599   23.5868 C   0  0  0  0  0  0  0  0  0  0  0  0
   12.5940    8.9300   23.9755 O   0  0  0  0  0  0  0  0  0  0  0  0
    6.2492    7.0812   20.2092 C   0  0  0  0  0  0  0  0  0  0  0  0
    9.3040    9.1905   19.8418 C   0  0  0  0  0  0  0  0  0  0  0  0
   11.9113    7.4157   20.0924 C   0  0  0  0  0  0  0  0  0  0  0  0
    5.4186    7.3981   20.3667 C   0  0  0  0  0  0  0  0  0  0  0  0
    5.8574   10.0636   22.0356 C   0  0  0  0  0  0  0  0  0  0  0  0
  8 28  1  0
 10 11  1  0
M  END
$$$$

 Created by Python create_sdf_string function

 28 29  0  0  0  0  0  0  0  0999 V2000
   11.9440    5.0891   22.6601 N   0  0  0  0  0  0  0  0  0  0  0  0
   11.3037    8.6267   19.9957 Br  0  0  0  0  0  0  0  0  0  0  0  0
    8.5965    6.7927   21.1577 S   0  0  0  0  0  0  0  0  0  0  0  0
   11.5675    7.6993   22.4491 Cl  0  0  0  0  0  0  0  0  0  0  0  0
    6.9716    7.2680   21.3865 N   0  0  0  0  0  0  0  0  0  0  0  0
   10.8933    7.3387   21.6924 C   0  0  0  0  0  0  0  0  0  0  0  0
    5.5159    9.7755   21.2902 C   0  0  0  0  0  0  0  0  0  0  0  0
    7.7521    8.1491   21.9320 O   0  0  0  0  0  0  0  0  0  0  0  0
   10.6908    8.4382   22.7108 C   0  0  0  0  0  0  0  0  0  0  0  0
   11.7727    7.6866   23.8256 F   0  0  0  0  0  0  0  0  0  0  0  0
   11.2023    6.5740   24.6502 P   0  0  0  0  0  0  0  0  0  0  0  0
    6.8197    7.7345   20.3953 C   0  0  0  0  0  0  0  0  0  0  0  0
    9.6154    9.3943   23.6457 B   0  0  0  0  0  0  0  0  0  0  0  0
   11.3640    5.9774   19.9059 S   0  0  0  0  0  0  0  0  0  0  0  0
    7.7844    5.1820   21.3580 He  0  0  0  0  0  0  0  0  0  0  0  0
    9.0559    7.6677   23.6510 He  0  0  0  0  0  0  0  0  0  0  0  0
    9.4473    9.5864   24.3935 He  0  0  0  0  0  0  0  0  0  0  0  0
    8.9322    6.9481   24.7125 He  0  0  0  0  0  0  0  0  0  0  0  0
    9.3108    8.4860   22.2809 He  0  0  0  0  0  0  0  0  0  0  0  0
    5.2548   10.0137   19.5504 He  0  0  0  0  0  0  0  0  0  0  0  0
    4.0621    6.5424   19.1592 He  0  0  0  0  0  0  0  0  0  0  0  0
   12.2295    8.4111   18.2395 He  0  0  0  0  0  0  0  0  0  0  0  0
    9.4426    9.8600   19.4552 He  0  0  0  0  0  0  0  0  0  0  0  0
   12.1420    8.5750   22.9049 He  0  0  0  0  0  0  0  0  0  0  0  0
    7.2589    8.0600   18.6505 He  0  0  0  0  0  0  0  0  0  0  0  0
    8.6917    9.8931   19.5081 He  0  0  0  0  0  0  0  0  0  0  0  0
    4.0094    6.9701   20.2667 He  0  0  0  0  0  0  0  0  0  0  0  0
    7.0139    9.4814   20.4307 He  0  0  0  0  0  0  0  0  0  0  0  0
  1  4  2  0
  1  5  4  0
  1 11  4  0
  1 13  1  0
  2  3  2  0
  2  4  3  0
  2  6  3  0
  2  9  1  0
  2 10  1  0
  2 11  3  0
  2 13  1  0
  3  4  2  0
  3  9  3  0
  3 10  3  0
  3 11  1  0
  4  8  1  0
  4  9  1  0
  4 13  2  0
  5  6  4  0
  5  7  3  0
  5  9  2  0
  6  7  4  0
  6 10  2  0
  7 14  1  0
  9 11  4  0
  9 13  3  0
 11 14  1  0
 12 13  4  0
 13 14  4  0
M  END
$$$$

 Created by Python create_sdf_string function

 28  2  0  0  0  0  0  0  0  0999 V2000
   11.6355    5.8270   22.7598 C   0  0  0  0  0  0  0  0  0  0  0  0
    7.6940    5.9603   21.3869 C   0  0  0  0  0  0  0  0  0  0  0  0
   11.1711    8.4412   19.9230 C   0  0  0  0  0  0  0  0  0  0  0  0
    8.3997    6.9257   21.2543 C   0  0  0  0  0  0  0  0  0  0  0  0
   11.6122    7.6672   22.4611 C   0  0  0  0  0  0  0  0  0  0  0  0
    6.8626    7.3274   21.0530 C   0  0  0  0  0  0  0  0  0  0  0  0
   11.0516    7.4403   21.3025 C   0  0  0  0  0  0  0  0  0  0  0  0
    5.8710    9.2383   20.7387 C   0  0  0  0  0  0  0  0  0  0  0  0
    7.5884    8.2145   21.8658 C   0  0  0  0  0  0  0  0  0  0  0  0
    9.1581    7.6180   23.7019 C   0  0  0  0  0  0  0  0  0  0  0  0
    9.4306    9.3256   24.1926 C   0  0  0  0  0  0  0  0  0  0  0  0
    9.1753    7.0845   24.5383 C   0  0  0  0  0  0  0  0  0  0  0  0
   10.8656    8.2737   22.6482 C   0  0  0  0  0  0  0  0  0  0  0  0
    9.1102    8.4466   22.2815 C   0  0  0  0  0  0  0  0  0  0  0  0
    5.3485    9.2906   19.4882 C   0  0  0  0  0  0  0  0  0  0  0  0
    4.7122    7.1005   19.4410 C   0  0  0  0  0  0  0  0  0  0  0  0
   11.5930    8.2065   18.9945 C   0  0  0  0  0  0  0  0  0  0  0  0
   11.8324    7.5515   23.8100 C   0  0  0  0  0  0  0  0  0  0  0  0
   11.0279    6.6497   24.4726 C   0  0  0  0  0  0  0  0  0  0  0  0
    9.5265    9.4706   19.5971 C   0  0  0  0  0  0  0  0  0  0  0  0
    6.5364    7.7276   20.2545 C   0  0  0  0  0  0  0  0  0  0  0  0
    9.5161    9.2442   23.7214 C   0  0  0  0  0  0  0  0  0  0  0  0
   12.1175    8.3292   22.8558 C   0  0  0  0  0  0  0  0  0  0  0  0
    6.9513    8.1754   18.9583 C   0  0  0  0  0  0  0  0  0  0  0  0
    8.7215    9.5736   19.5885 C   0  0  0  0  0  0  0  0  0  0  0  0
   11.3873    6.5806   20.1141 C   0  0  0  0  0  0  0  0  0  0  0  0
    4.6535    7.3009   19.8979 C   0  0  0  0  0  0  0  0  0  0  0  0
    6.9839    9.2834   20.2691 C   0  0  0  0  0  0  0  0  0  0  0  0
 11 22  1  0
 16 27  1  0
M  END
$$$$

 Created by Python create_sdf_string function

 28 69  0  0  0  0  0  0  0  0999 V2000
    7.7299    6.2988   21.5775 C   0  0  0  0  0  0  0  0  0  0  0  0
   10.2502    7.9756   19.7973 P   0  0  0  0  0  0  0  0  0  0  0  0
    8.6541    7.5758   19.5574 F   0  0  0  0  0  0  0  0  0  0  0  0
   10.5541    7.3007   22.1947 C   0  0  0  0  0  0  0  0  0  0  0  0
    8.4174    7.9887   23.3405 C   0  0  0  0  0  0  0  0  0  0  0  0
    9.5792    6.6211   23.4207 C   0  0  0  0  0  0  0  0  0  0  0  0
   10.9823    8.7477   23.8201 I   0  0  0  0  0  0  0  0  0  0  0  0
   12.4237    9.2778   21.2920 C   0  0  0  0  0  0  0  0  0  0  0  0
    6.0255    8.7790   19.0193 C   0  0  0  0  0  0  0  0  0  0  0  0
    5.0915    7.9897   18.6256 C   0  0  0  0  0  0  0  0  0  0  0  0
   11.7373    7.1455   22.3290 P   0  0  0  0  0  0  0  0  0  0  0  0
   11.0074    6.5732   22.9544 S   0  0  0  0  0  0  0  0  0  0  0  0
    6.9706    6.9647   20.3186 Cl  0  0  0  0  0  0  0  0  0  0  0  0
    7.9764    9.1619   24.3188 F   0  0  0  0  0  0  0  0  0  0  0  0
   12.2868    9.4190   21.2844 S   0  0  0  0  0  0  0  0  0  0  0  0
    8.1428   10.3125   18.8445 O   0  0  0  0  0  0  0  0  0  0  0  0
   12.1986    8.3225   20.5538 Cl  0  0  0  0  0  0  0  0  0  0  0  0
    4.3653    7.3956   19.3762 C   0  0  0  0  0  0  0  0  0  0  0  0
   10.6354    5.9915   21.2791 He  0  0  0  0  0  0  0  0  0  0  0  0
    8.7276    5.9095   22.1785 He  0  0  0  0  0  0  0  0  0  0  0  0
   11.7353    7.9177   22.5523 He  0  0  0  0  0  0  0  0  0  0  0  0
    6.7966    9.9187   22.5492 He  0  0  0  0  0  0  0  0  0  0  0  0
   10.2504    6.2167   24.2720 He  0  0  0  0  0  0  0  0  0  0  0  0
   11.0510    7.8309   22.8707 He  0  0  0  0  0  0  0  0  0  0  0  0
   11.7382    9.2027   19.5834 He  0  0  0  0  0  0  0  0  0  0  0  0
    9.0478    7.8357   19.3611 He  0  0  0  0  0  0  0  0  0  0  0  0
    6.7862    7.1574   17.3539 He  0  0  0  0  0  0  0  0  0  0  0  0
    6.4710    9.8301   21.4796 He  0  0  0  0  0  0  0  0  0  0  0  0
  1  3  4  0
  1  4  4  0
  1  5  1  0
  1  7  1  0
  1 12  3  0
  2  3  1  0
  2  4  4  0
  2  6  2  0
  2  7  1  0
  2  8  4  0
  2  9  3  0
  2 10  4  0
  2 12  4  0
  2 15  3  0
  2 16  4  0
  2 18  1  0
  3  4  2  0
  3  5  3  0
  3  7  2  0
  3 14  2  0
  3 17  2  0
  4  5  3  0
  4  6  4  0
  4  9  1  0
  4 10  1  0
  4 14  3  0
  4 15  4  0
  4 17  2  0
  5  6  2  0
  5  8  4  0
  5  9  3  0
  5 17  2  0
  6  8  1  0
  6 12  2  0
  6 14  1  0
  6 16  1  0
  6 17  2  0
  6 18  2  0
  7  8  4  0
  7 12  3  0
  7 14  1  0
  7 15  4  0
  7 16  3  0
  7 17  2  0
  8  9  2  0
  8 12  2  0
  8 13  3  0
  8 14  1  0
  8 18  4  0
  9 10  3  0
  9 11  4  0
  9 14  4  0
  9 16  2  0
  9 18  4  0
 10 11  1  0
 10 14  1  0
 11 17  3  0
 12 14  3  0
 12 15  3  0
 12 18  2  0
 13 15  1  0
 13 16  1  0
 14 15  3  0
 14 17  2  0
 14 18  2  0
 15 16  4  0
 15 18  4  0
 16 17  3  0
 16 18  3  0
M  END
$$$$

 Created by Python create_sdf_string function

 28  2  0  0  0  0  0  0  0  0999 V2000
   10.6892    6.0427   21.3213 C   0  0  0  0  0  0  0  0  0  0  0  0
    7.6704    6.8390   21.6217 C   0  0  0  0  0  0  0  0  0  0  0  0
   10.2250    8.2656   19.5901 C   0  0  0  0  0  0  0  0  0  0  0  0
    8.5629    6.1237   22.3385 C   0  0  0  0  0  0  0  0  0  0  0  0
   11.8782    8.0239   22.6507 C   0  0  0  0  0  0  0  0  0  0  0  0
    8.3515    7.7295   19.5733 C   0  0  0  0  0  0  0  0  0  0  0  0
   10.4424    7.3803   22.3729 C   0  0  0  0  0  0  0  0  0  0  0  0
    7.0551    9.3296   22.4478 C   0  0  0  0  0  0  0  0  0  0  0  0
    8.0707    8.0021   23.2282 C   0  0  0  0  0  0  0  0  0  0  0  0
    9.3178    6.7799   23.5342 C   0  0  0  0  0  0  0  0  0  0  0  0
   11.0352    8.8072   23.8657 C   0  0  0  0  0  0  0  0  0  0  0  0
   10.2817    6.1086   24.1921 C   0  0  0  0  0  0  0  0  0  0  0  0
   12.4762    9.2566   21.2518 C   0  0  0  0  0  0  0  0  0  0  0  0
   11.1896    8.1019   23.0193 C   0  0  0  0  0  0  0  0  0  0  0  0
    6.2040    8.4886   19.1994 C   0  0  0  0  0  0  0  0  0  0  0  0
    5.4096    7.8934   19.0469 C   0  0  0  0  0  0  0  0  0  0  0  0
   11.5634    9.0865   19.6143 C   0  0  0  0  0  0  0  0  0  0  0  0
   11.8858    7.2433   22.2981 C   0  0  0  0  0  0  0  0  0  0  0  0
   10.9645    6.2762   23.1889 C   0  0  0  0  0  0  0  0  0  0  0  0
    8.9472    8.0446   19.2834 C   0  0  0  0  0  0  0  0  0  0  0  0
    7.0385    7.3895   20.3427 C   0  0  0  0  0  0  0  0  0  0  0  0
    7.9187    9.0016   23.7608 C   0  0  0  0  0  0  0  0  0  0  0  0
   12.3897    9.4407   21.1081 C   0  0  0  0  0  0  0  0  0  0  0  0
    6.7842    7.4446   18.0479 C   0  0  0  0  0  0  0  0  0  0  0  0
    8.0098    9.5258   18.8746 O   0  0  0  0  0  0  0  0  0  0  0  0
   12.1434    8.5178   20.3447 C   0  0  0  0  0  0  0  0  0  0  0  0
    5.0149    7.6361   19.2115 C   0  0  0  0  0  0  0  0  0  0  0  0
    6.7256    9.3080   21.6352 C   0  0  0  0  0  0  0  0  0  0  0  0
  8 28  1  0
 16 27  1  0
M  END
$$$$

 Created by Python create_sdf_string function

 28 41  0  0  0  0  0  0  0  0999 V2000
   10.9685    8.7441   19.9093 C   0  0  0  0  0  0  0  0  0  0  0  0
    6.7416    6.3207   21.7961 B   0  0  0  0  0  0  0  0  0  0  0  0
   11.0466    9.4070   23.4560 O   0  0  0  0  0  0  0  0  0  0  0  0
   10.2833    9.6481   24.7825 O   0  0  0  0  0  0  0  0  0  0  0  0
   10.9575    8.0272   22.0756 C   0  0  0  0  0  0  0  0  0  0  0  0
    6.1372    8.6825   19.6834 C   0  0  0  0  0  0  0  0  0  0  0  0
   10.5247    7.1630   21.9551 C   0  0  0  0  0  0  0  0  0  0  0  0
   10.2166    6.9254   23.2371 O   0  0  0  0  0  0  0  0  0  0  0  0
    9.2267    8.5357   19.0539 N   0  0  0  0  0  0  0  0  0  0  0  0
    7.4994    7.3733   20.9692 F   0  0  0  0  0  0  0  0  0  0  0  0
    7.5376    7.6960   16.8960 C   0  0  0  0  0  0  0  0  0  0  0  0
    7.0641   10.1145   17.6109 O   0  0  0  0  0  0  0  0  0  0  0  0
   11.0279    7.5338   20.4592 Br  0  0  0  0  0  0  0  0  0  0  0  0
    4.5987    7.3704   20.6711 P   0  0  0  0  0  0  0  0  0  0  0  0
   10.8263    6.5117   19.1143 He  0  0  0  0  0  0  0  0  0  0  0  0
    8.1027    6.4934   19.9336 He  0  0  0  0  0  0  0  0  0  0  0  0
    8.2379    7.2818   19.7857 He  0  0  0  0  0  0  0  0  0  0  0  0
    9.1783    7.8944   23.4331 He  0  0  0  0  0  0  0  0  0  0  0  0
    7.2402    7.9193   21.2204 He  0  0  0  0  0  0  0  0  0  0  0  0
    8.5264    7.9771   22.0599 He  0  0  0  0  0  0  0  0  0  0  0  0
    7.7997    6.6904   23.9675 He  0  0  0  0  0  0  0  0  0  0  0  0
   10.0427    6.5692   25.0991 He  0  0  0  0  0  0  0  0  0  0  0  0
   12.2791    8.0263   22.6807 He  0  0  0  0  0  0  0  0  0  0  0  0
    4.5738    6.5285   19.8849 He  0  0  0  0  0  0  0  0  0  0  0  0
   11.9844    9.4467   19.9658 He  0  0  0  0  0  0  0  0  0  0  0  0
    8.0790   10.0891   24.9135 He  0  0  0  0  0  0  0  0  0  0  0  0
   11.4113    8.3994   21.1810 He  0  0  0  0  0  0  0  0  0  0  0  0
    7.0762    9.6222   21.5720 He  0  0  0  0  0  0  0  0  0  0  0  0
  1  2  4  0
  1  6  2  0
  1  8  4  0
  1  9  2  0
  1 11  2  0
  1 12  4  0
  1 13  3  0
  2  5  2  0
  2  6  1  0
  2  7  4  0
  2  8  3  0
  2  9  4  0
  2 12  3  0
  3  4  4  0
  3  6  2  0
  3  9  3  0
  4  5  3  0
  4  8  2  0
  4 11  1  0
  4 12  3  0
  5  7  4  0
  5  8  3  0
  5  9  3  0
  5 10  4  0
  5 12  1  0
  5 13  3  0
  5 14  1  0
  6  8  2  0
  6 10  4  0
  6 12  1  0
  6 14  2  0
  7 11  3  0
  7 13  4  0
  8  9  1  0
  8 10  1  0
  8 12  4  0
  9 13  4  0
 10 11  2  0
 10 12  4  0
 11 13  1  0
 11 14  2  0
M  END
$$$$

 Created by Python create_sdf_string function

 28  0  0  0  0  0  0  0  0  0999 V2000
   10.6484    6.9824   19.1573 C   0  0  0  0  0  0  0  0  0  0  0  0
    7.9052    7.1087   19.6472 C   0  0  0  0  0  0  0  0  0  0  0  0
   11.0369    8.6640   19.6910 C   0  0  0  0  0  0  0  0  0  0  0  0
    6.4871    6.7467   21.8087 C   0  0  0  0  0  0  0  0  0  0  0  0
   11.0257    9.1657   23.6229 C   0  0  0  0  0  0  0  0  0  0  0  0
    7.9358    7.6161   19.4664 C   0  0  0  0  0  0  0  0  0  0  0  0
    9.1297    7.9791   23.7488 C   0  0  0  0  0  0  0  0  0  0  0  0
    7.0032    7.8463   21.1900 C   0  0  0  0  0  0  0  0  0  0  0  0
    8.1454    8.0232   22.4061 C   0  0  0  0  0  0  0  0  0  0  0  0
    8.1413    6.9365   23.9456 C   0  0  0  0  0  0  0  0  0  0  0  0
   10.0086    9.1947   24.5586 O   0  0  0  0  0  0  0  0  0  0  0  0
    9.8220    6.9695   24.7968 C   0  0  0  0  0  0  0  0  0  0  0  0
   11.1606    8.1038   22.1031 C   0  0  0  0  0  0  0  0  0  0  0  0
   12.1122    8.1940   22.7198 C   0  0  0  0  0  0  0  0  0  0  0  0
    6.2510    8.2938   19.4545 C   0  0  0  0  0  0  0  0  0  0  0  0
    5.0525    7.0449   19.8643 C   0  0  0  0  0  0  0  0  0  0  0  0
   11.8361    9.1310   20.0635 C   0  0  0  0  0  0  0  0  0  0  0  0
   10.6902    7.3837   21.8692 C   0  0  0  0  0  0  0  0  0  0  0  0
   10.0312    7.0470   23.7278 C   0  0  0  0  0  0  0  0  0  0  0  0
    9.1411    8.2203   18.8128 C   0  0  0  0  0  0  0  0  0  0  0  0
    7.0403    7.6136   20.9771 C   0  0  0  0  0  0  0  0  0  0  0  0
    8.4945    9.4877   24.4689 O   0  0  0  0  0  0  0  0  0  0  0  0
   11.7112    8.5714   21.1749 C   0  0  0  0  0  0  0  0  0  0  0  0
    7.5914    7.8618   17.7460 C   0  0  0  0  0  0  0  0  0  0  0  0
    7.2267    9.1057   18.0516 O   0  0  0  0  0  0  0  0  0  0  0  0
   11.0165    7.5067   20.2260 C   0  0  0  0  0  0  0  0  0  0  0  0
    5.0213    7.3807   20.4249 C   0  0  0  0  0  0  0  0  0  0  0  0
    7.1114    9.1588   21.7364 C   0  0  0  0  0  0  0  0  0  0  0  0
M  END
$$$$

 Created by Python create_sdf_string function

 28 22  0  0  0  0  0  0  0  0999 V2000
   11.0870    5.0160   18.3662 O   0  0  0  0  0  0  0  0  0  0  0  0
    9.1536    7.9555   22.1844 Cl  0  0  0  0  0  0  0  0  0  0  0  0
    6.6021    7.7454   21.6149 C   0  0  0  0  0  0  0  0  0  0  0  0
    8.6438    7.6588   21.0443 O   0  0  0  0  0  0  0  0  0  0  0  0
   10.1798   10.1202   23.2924 N   0  0  0  0  0  0  0  0  0  0  0  0
   10.5188    6.1438   24.2520 C   0  0  0  0  0  0  0  0  0  0  0  0
   12.0049    6.4961   23.0803 C   0  0  0  0  0  0  0  0  0  0  0  0
   11.6278    8.9711   21.7376 O   0  0  0  0  0  0  0  0  0  0  0  0
    5.4460    6.0809   18.9648 F   0  0  0  0  0  0  0  0  0  0  0  0
   12.1335    8.9831   18.9125 P   0  0  0  0  0  0  0  0  0  0  0  0
   11.4347    8.2833   20.1204 N   0  0  0  0  0  0  0  0  0  0  0  0
    9.0986    6.6838   22.9410 C   0  0  0  0  0  0  0  0  0  0  0  0
    8.8779    6.9517   17.6347 He  0  0  0  0  0  0  0  0  0  0  0  0
   10.5756    6.9808   19.5132 He  0  0  0  0  0  0  0  0  0  0  0  0
    5.9994    5.6632   20.3380 He  0  0  0  0  0  0  0  0  0  0  0  0
   12.1120    9.9414   23.3145 He  0  0  0  0  0  0  0  0  0  0  0  0
    6.5936    8.5154   18.7557 He  0  0  0  0  0  0  0  0  0  0  0  0
    9.8967    8.6440   25.8926 He  0  0  0  0  0  0  0  0  0  0  0  0
    5.2005    7.5617   20.0531 He  0  0  0  0  0  0  0  0  0  0  0  0
   10.3967    7.9306   19.2942 He  0  0  0  0  0  0  0  0  0  0  0  0
    6.5791    8.2419   21.0892 He  0  0  0  0  0  0  0  0  0  0  0  0
    9.2751    9.4850   23.3776 He  0  0  0  0  0  0  0  0  0  0  0  0
   12.7815    7.4194   19.7882 He  0  0  0  0  0  0  0  0  0  0  0  0
    7.8386    6.4670   19.4752 He  0  0  0  0  0  0  0  0  0  0  0  0
    6.0437    9.8792   18.0111 He  0  0  0  0  0  0  0  0  0  0  0  0
    9.4289    7.1654   20.1347 He  0  0  0  0  0  0  0  0  0  0  0  0
    4.2965    7.7670   20.8605 He  0  0  0  0  0  0  0  0  0  0  0  0
    7.9944    9.3434   23.4383 He  0  0  0  0  0  0  0  0  0  0  0  0
  1  2  4  0
  1  4  4  0
  1  5  4  0
  1  6  4  0
  1 12  1  0
  2  6  4  0
  2 10  3  0
  2 12  4  0
  3  5  3  0
  3  6  2  0
  3  8  3  0
  3  9  4  0
  3 11  3  0
  3 12  4  0
  4 11  3  0
  4 12  3  0
  5  6  4  0
  5 10  3  0
  5 12  1  0
  6  9  3  0
  9 10  2  0
  9 12  4  0
M  END
$$$$

 Created by Python create_sdf_string function

 28  2  0  0  0  0  0  0  0  0999 V2000
   10.9923    5.7727   18.5578 O   0  0  0  0  0  0  0  0  0  0  0  0
    8.8997    6.9279   18.1779 C   0  0  0  0  0  0  0  0  0  0  0  0
   10.7175    6.9359   19.2677 C   0  0  0  0  0  0  0  0  0  0  0  0
    6.0361    6.4277   20.0993 C   0  0  0  0  0  0  0  0  0  0  0  0
   11.5950    9.5811   23.2652 O   0  0  0  0  0  0  0  0  0  0  0  0
    6.6085    8.2893   19.0706 C   0  0  0  0  0  0  0  0  0  0  0  0
    9.2568    8.0299   22.5569 C   0  0  0  0  0  0  0  0  0  0  0  0
    6.7106    7.8941   21.5167 C   0  0  0  0  0  0  0  0  0  0  0  0
    8.4706    7.6756   21.0558 C   0  0  0  0  0  0  0  0  0  0  0  0
   10.0782    8.4680   25.0049 O   0  0  0  0  0  0  0  0  0  0  0  0
   10.4068    9.5489   23.3809 C   0  0  0  0  0  0  0  0  0  0  0  0
   10.2782    6.8229   24.0049 C   0  0  0  0  0  0  0  0  0  0  0  0
   11.3900    6.9912   23.1316 C   0  0  0  0  0  0  0  0  0  0  0  0
   11.5590    8.8559   21.6805 C   0  0  0  0  0  0  0  0  0  0  0  0
    5.1726    7.5855   19.7701 C   0  0  0  0  0  0  0  0  0  0  0  0
    5.5529    6.6711   19.0851 C   0  0  0  0  0  0  0  0  0  0  0  0
   12.0073    8.4884   19.2497 C   0  0  0  0  0  0  0  0  0  0  0  0
   11.6572    8.2300   20.2514 C   0  0  0  0  0  0  0  0  0  0  0  0
    9.3144    7.1212   23.0697 C   0  0  0  0  0  0  0  0  0  0  0  0
   10.4468    7.7027   19.2608 C   0  0  0  0  0  0  0  0  0  0  0  0
    6.6492    8.1663   20.9935 C   0  0  0  0  0  0  0  0  0  0  0  0
    9.5679    9.2343   23.3887 C   0  0  0  0  0  0  0  0  0  0  0  0
   12.2782    7.4554   19.7186 C   0  0  0  0  0  0  0  0  0  0  0  0
    7.7834    6.8924   19.2737 C   0  0  0  0  0  0  0  0  0  0  0  0
    6.2750    8.8547   18.7111 C   0  0  0  0  0  0  0  0  0  0  0  0
    9.5600    7.1338   19.8142 C   0  0  0  0  0  0  0  0  0  0  0  0
    4.6071    7.6921   20.3854 C   0  0  0  0  0  0  0  0  0  0  0  0
    8.2723    9.0126   23.2846 C   0  0  0  0  0  0  0  0  0  0  0  0
  5 11  1  0
  6 25  4  0
M  END
$$$$

 Created by Python create_sdf_string function

 28 63  0  0  0  0  0  0  0  0999 V2000
   10.8668    4.1720   18.5294 F   0  0  0  0  0  0  0  0  0  0  0  0
    7.5603    6.1547   19.0183 F   0  0  0  0  0  0  0  0  0  0  0  0
    7.2384    6.6532   20.7259 F   0  0  0  0  0  0  0  0  0  0  0  0
   12.7548   10.4295   22.6381 B   0  0  0  0  0  0  0  0  0  0  0  0
    7.6744    9.6420   19.1786 O   0  0  0  0  0  0  0  0  0  0  0  0
    7.2772    8.7396   21.7911 P   0  0  0  0  0  0  0  0  0  0  0  0
    9.1288    5.6653   20.8848 F   0  0  0  0  0  0  0  0  0  0  0  0
   10.0117    7.2828   25.1629 S   0  0  0  0  0  0  0  0  0  0  0  0
    9.0750    9.4566   23.5000 O   0  0  0  0  0  0  0  0  0  0  0  0
    8.0837    7.7514   25.1005 Se  0  0  0  0  0  0  0  0  0  0  0  0
   11.4503    6.9777   22.8062 Cl  0  0  0  0  0  0  0  0  0  0  0  0
    5.9637    6.7165   19.4853 C   0  0  0  0  0  0  0  0  0  0  0  0
    5.8374    6.5089   16.7797 F   0  0  0  0  0  0  0  0  0  0  0  0
    9.8088    7.5396   18.2110 P   0  0  0  0  0  0  0  0  0  0  0  0
    4.9315    7.0902   21.5881 P   0  0  0  0  0  0  0  0  0  0  0  0
   11.9741    7.0694   19.8389 N   0  0  0  0  0  0  0  0  0  0  0  0
    7.9147    7.7575   20.3363 F   0  0  0  0  0  0  0  0  0  0  0  0
    3.9067    8.3809   20.0285 F   0  0  0  0  0  0  0  0  0  0  0  0
   10.1896    8.5621   19.7156 He  0  0  0  0  0  0  0  0  0  0  0  0
    8.7730    9.4494   22.9120 He  0  0  0  0  0  0  0  0  0  0  0  0
   12.0821    9.9475   20.5736 He  0  0  0  0  0  0  0  0  0  0  0  0
   12.9282    8.0197   18.8177 He  0  0  0  0  0  0  0  0  0  0  0  0
   12.6715    7.3986   21.0225 He  0  0  0  0  0  0  0  0  0  0  0  0
    7.4617    6.3387   21.6796 He  0  0  0  0  0  0  0  0  0  0  0  0
    8.9984    8.8637   24.8284 He  0  0  0  0  0  0  0  0  0  0  0  0
    6.2092    9.4235   18.4695 He  0  0  0  0  0  0  0  0  0  0  0  0
    6.5269    7.9888   17.1825 He  0  0  0  0  0  0  0  0  0  0  0  0
    6.8068    9.2432   23.1887 He  0  0  0  0  0  0  0  0  0  0  0  0
  1  3  2  0
  1  5  1  0
  1  7  2  0
  1  9  4  0
  1 10  4  0
  1 11  4  0
  1 14  1  0
  1 15  2  0
  1 16  1  0
  1 17  1  0
  1 18  4  0
  2  8  1  0
  2 11  2  0
  2 12  1  0
  2 13  2  0
  2 14  4  0
  2 15  3  0
  2 18  2  0
  3  6  1  0
  3 11  2  0
  3 12  2  0
  3 13  1  0
  3 16  3  0
  3 17  2  0
  3 18  2  0
  4  9  1  0
  4 12  4  0
  4 14  1  0
  4 15  4  0
  4 18  2  0
  5  8  2  0
  5 14  4  0
  5 15  2  0
  5 18  4  0
  6  7  4  0
  6  9  1  0
  6 10  4  0
  7  9  2  0
  7 11  2  0
  7 12  2  0
  7 14  2  0
  8 14  4  0
  8 15  4  0
  9 10  3  0
  9 11  2  0
  9 12  3  0
  9 14  1  0
  9 15  4  0
  9 16  3  0
 10 15  2  0
 10 17  2  0
 10 18  4  0
 11 13  3  0
 11 16  2  0
 12 14  1  0
 12 17  4  0
 13 14  2  0
 13 16  3  0
 14 16  1  0
 14 18  1  0
 15 16  1  0
 16 17  2  0
 16 18  2  0
M  END
$$$$

 Created by Python create_sdf_string function

 28  3  0  0  0  0  0  0  0  0999 V2000
   10.7747    5.5350   19.0939 C   0  0  0  0  0  0  0  0  0  0  0  0
    7.5649    6.4739   18.9389 C   0  0  0  0  0  0  0  0  0  0  0  0
   10.6329    8.2085   20.0431 C   0  0  0  0  0  0  0  0  0  0  0  0
    7.1990    7.0527   20.6168 C   0  0  0  0  0  0  0  0  0  0  0  0
   12.0804    9.6497   22.0159 O   0  0  0  0  0  0  0  0  0  0  0  0
    7.3984    9.2160   19.2149 C   0  0  0  0  0  0  0  0  0  0  0  0
    8.8945    9.0815   22.9834 C   0  0  0  0  0  0  0  0  0  0  0  0
    7.3114    8.4710   22.1376 C   0  0  0  0  0  0  0  0  0  0  0  0
    9.5994    6.1239   20.3750 C   0  0  0  0  0  0  0  0  0  0  0  0
    9.8715    7.7256   24.6977 O   0  0  0  0  0  0  0  0  0  0  0  0
    9.2089    9.1293   23.3612 O   0  0  0  0  0  0  0  0  0  0  0  0
    8.2300    8.0339   24.6429 O   0  0  0  0  0  0  0  0  0  0  0  0
   11.2294    7.5388   22.3434 C   0  0  0  0  0  0  0  0  0  0  0  0
   12.0169    9.1978   21.0245 C   0  0  0  0  0  0  0  0  0  0  0  0
    5.9990    7.0614   19.5498 C   0  0  0  0  0  0  0  0  0  0  0  0
    6.3939    6.6173   17.9412 O   0  0  0  0  0  0  0  0  0  0  0  0
   12.4308    7.8469   19.4407 C   0  0  0  0  0  0  0  0  0  0  0  0
   12.1452    7.7665   20.7751 C   0  0  0  0  0  0  0  0  0  0  0  0
    7.4177    6.9497   21.9003 C   0  0  0  0  0  0  0  0  0  0  0  0
    9.9859    7.0649   18.8737 C   0  0  0  0  0  0  0  0  0  0  0  0
    5.3614    7.4489   21.4039 C   0  0  0  0  0  0  0  0  0  0  0  0
    9.1204    8.5393   24.4437 C   0  0  0  0  0  0  0  0  0  0  0  0
   11.4820    6.8733   19.8895 C   0  0  0  0  0  0  0  0  0  0  0  0
    7.7370    7.7561   20.2895 C   0  0  0  0  0  0  0  0  0  0  0  0
    6.2129    8.8410   19.0102 C   0  0  0  0  0  0  0  0  0  0  0  0
    7.0211    7.7826   17.9549 C   0  0  0  0  0  0  0  0  0  0  0  0
    4.6471    8.1581   19.5285 O   0  0  0  0  0  0  0  0  0  0  0  0
    7.1364    8.8454   22.8783 C   0  0  0  0  0  0  0  0  0  0  0  0
  5 14  1  0
  8 28  1  0
 12 22  1  0
M  END
$$$$

 Created by Python create_sdf_string function

 28 29  0  0  0  0  0  0  0  0999 V2000
   11.5165    5.4781   19.9828 Cl  0  0  0  0  0  0  0  0  0  0  0  0
    6.4652    5.5209   19.3887 C   0  0  0  0  0  0  0  0  0  0  0  0
   10.5253    9.6112   19.6572 P   0  0  0  0  0  0  0  0  0  0  0  0
    7.4036    7.2629   22.2614 C   0  0  0  0  0  0  0  0  0  0  0  0
   12.6863   10.2606   20.4161 C   0  0  0  0  0  0  0  0  0  0  0  0
   11.4737    9.9132   22.9780 Se  0  0  0  0  0  0  0  0  0  0  0  0
   10.3969    6.6288   21.4542 N   0  0  0  0  0  0  0  0  0  0  0  0
    9.8672    8.0262   24.3934 F   0  0  0  0  0  0  0  0  0  0  0  0
    7.4614    7.8371   24.1276 N   0  0  0  0  0  0  0  0  0  0  0  0
   10.6905    9.0738   20.7309 C   0  0  0  0  0  0  0  0  0  0  0  0
   13.0860    8.9158   20.2541 C   0  0  0  0  0  0  0  0  0  0  0  0
   12.5630    7.3952   21.0843 O   0  0  0  0  0  0  0  0  0  0  0  0
    9.3396    6.9967   21.2375 S   0  0  0  0  0  0  0  0  0  0  0  0
    8.1283    6.8380   21.7297 C   0  0  0  0  0  0  0  0  0  0  0  0
    7.1201    7.6234   23.6283 P   0  0  0  0  0  0  0  0  0  0  0  0
    8.0139    8.4157   19.3531 He  0  0  0  0  0  0  0  0  0  0  0  0
    5.5487    8.3693   23.6645 He  0  0  0  0  0  0  0  0  0  0  0  0
    8.5255    9.5506   22.8339 He  0  0  0  0  0  0  0  0  0  0  0  0
   12.0506    9.1700   22.5883 He  0  0  0  0  0  0  0  0  0  0  0  0
    6.7567    8.4661   18.9235 He  0  0  0  0  0  0  0  0  0  0  0  0
    7.3800    5.8425   18.7194 He  0  0  0  0  0  0  0  0  0  0  0  0
   10.2287    6.7208   18.8759 He  0  0  0  0  0  0  0  0  0  0  0  0
    5.1107    6.1677   20.4266 He  0  0  0  0  0  0  0  0  0  0  0  0
    7.8561    8.0296   25.7410 He  0  0  0  0  0  0  0  0  0  0  0  0
   11.6465    7.6102   19.2129 He  0  0  0  0  0  0  0  0  0  0  0  0
    5.1331    8.7214   19.6701 He  0  0  0  0  0  0  0  0  0  0  0  0
    8.0654    9.0050   18.7849 He  0  0  0  0  0  0  0  0  0  0  0  0
    4.8815    8.1458   19.7947 He  0  0  0  0  0  0  0  0  0  0  0  0
  1  5  4  0
  1 12  1  0
  1 13  3  0
  1 15  4  0
  2  3  4  0
  2  4  4  0
  2  5  2  0
  2  7  2  0
  2 15  3  0
  3  7  3  0
  4  7  4  0
  5  6  3  0
  5 11  2  0
  5 12  1  0
  5 13  4  0
  5 15  4  0
  6 10  1  0
  7 11  4  0
  8  9  3  0
  8 11  2  0
  8 12  1  0
  8 15  1  0
  9 12  4  0
  9 14  2  0
 10 11  1  0
 10 12  4  0
 10 14  4  0
 11 15  3  0
 14 15  3  0
M  END
$$$$

 Created by Python create_sdf_string function

 28  4  0  0  0  0  0  0  0  0999 V2000
   11.3331    5.9643   19.9519 C   0  0  0  0  0  0  0  0  0  0  0  0
    6.3227    6.3996   19.4148 C   0  0  0  0  0  0  0  0  0  0  0  0
   10.5966    9.3758   19.7169 C   0  0  0  0  0  0  0  0  0  0  0  0
    7.4906    7.3826   22.2046 C   0  0  0  0  0  0  0  0  0  0  0  0
   12.6339    9.8989   20.6463 C   0  0  0  0  0  0  0  0  0  0  0  0
    8.0470    8.3682   19.2057 C   0  0  0  0  0  0  0  0  0  0  0  0
   11.4451    9.5587   22.6261 C   0  0  0  0  0  0  0  0  0  0  0  0
    6.1017    8.0674   23.6041 C   0  0  0  0  0  0  0  0  0  0  0  0
   10.3531    6.8457   21.3177 C   0  0  0  0  0  0  0  0  0  0  0  0
    9.4790    8.1294   23.9678 C   0  0  0  0  0  0  0  0  0  0  0  0
    8.5042    8.9222   22.9984 C   0  0  0  0  0  0  0  0  0  0  0  0
    7.5880    7.9327   24.0727 C   0  0  0  0  0  0  0  0  0  0  0  0
   11.7709    9.1995   22.5376 C   0  0  0  0  0  0  0  0  0  0  0  0
   11.0636    9.0467   20.8466 C   0  0  0  0  0  0  0  0  0  0  0  0
    6.8082    8.2971   19.0337 C   0  0  0  0  0  0  0  0  0  0  0  0
    7.1433    6.5387   18.8120 C   0  0  0  0  0  0  0  0  0  0  0  0
   12.6629    9.1056   20.4417 C   0  0  0  0  0  0  0  0  0  0  0  0
   12.2293    7.6362   20.8528 C   0  0  0  0  0  0  0  0  0  0  0  0
    9.3370    7.1501   21.3283 C   0  0  0  0  0  0  0  0  0  0  0  0
   10.3434    6.8630   19.1170 C   0  0  0  0  0  0  0  0  0  0  0  0
    5.4032    6.6725   20.0113 C   0  0  0  0  0  0  0  0  0  0  0  0
    7.8328    8.1008   25.1445 C   0  0  0  0  0  0  0  0  0  0  0  0
   11.5256    7.5897   19.5090 C   0  0  0  0  0  0  0  0  0  0  0  0
    8.0726    7.0648   21.7886 C   0  0  0  0  0  0  0  0  0  0  0  0
    5.3096    8.2834   19.3801 C   0  0  0  0  0  0  0  0  0  0  0  0
    7.8701    8.7743   18.8156 C   0  0  0  0  0  0  0  0  0  0  0  0
    5.2094    7.8907   19.4792 C   0  0  0  0  0  0  0  0  0  0  0  0
    7.2996    7.8976   23.8431 C   0  0  0  0  0  0  0  0  0  0  0  0
  5 17  1  0
  6 26  1  0
  7 13  1  0
 25 27  4  0
M  END
$$$$

 Created by Python create_sdf_string function

 28 28  0  0  0  0  0  0  0  0999 V2000
   11.1751    9.3490   20.3919 P   0  0  0  0  0  0  0  0  0  0  0  0
   12.4178    8.4664   21.0609 C   0  0  0  0  0  0  0  0  0  0  0  0
    8.9611   10.7445   19.7322 P   0  0  0  0  0  0  0  0  0  0  0  0
   11.2610    9.5514   22.0549 O   0  0  0  0  0  0  0  0  0  0  0  0
    9.9446    7.9651   20.9087 C   0  0  0  0  0  0  0  0  0  0  0  0
    6.0725    6.5949   19.8868 O   0  0  0  0  0  0  0  0  0  0  0  0
   11.8103    9.3131   21.3254 C   0  0  0  0  0  0  0  0  0  0  0  0
   10.3063    6.8646   19.2341 F   0  0  0  0  0  0  0  0  0  0  0  0
    4.8826    8.2720   20.2962 C   0  0  0  0  0  0  0  0  0  0  0  0
    6.7566    8.3779   25.6385 N   0  0  0  0  0  0  0  0  0  0  0  0
    7.3549    8.5856   21.5576 F   0  0  0  0  0  0  0  0  0  0  0  0
    6.1885    7.2391   19.2492 F   0  0  0  0  0  0  0  0  0  0  0  0
    8.2549    7.7886   16.7228 C   0  0  0  0  0  0  0  0  0  0  0  0
    5.8796    8.4998   23.4494 C   0  0  0  0  0  0  0  0  0  0  0  0
   11.4477    6.2258   19.3212 He  0  0  0  0  0  0  0  0  0  0  0  0
    5.7428    6.0861   20.1523 He  0  0  0  0  0  0  0  0  0  0  0  0
    7.4306    7.5595   22.5217 He  0  0  0  0  0  0  0  0  0  0  0  0
    5.8544    6.6911   23.4599 He  0  0  0  0  0  0  0  0  0  0  0  0
   11.3945    7.3787   21.4814 He  0  0  0  0  0  0  0  0  0  0  0  0
    8.3273    7.1708   25.0516 He  0  0  0  0  0  0  0  0  0  0  0  0
    7.9653    9.0147   21.8208 He  0  0  0  0  0  0  0  0  0  0  0  0
    6.4126    8.7154   24.3325 He  0  0  0  0  0  0  0  0  0  0  0  0
   11.1274    9.2606   22.9555 He  0  0  0  0  0  0  0  0  0  0  0  0
    6.0899    9.1270   18.4053 He  0  0  0  0  0  0  0  0  0  0  0  0
   13.4341    7.8157   21.9563 He  0  0  0  0  0  0  0  0  0  0  0  0
    8.6672    7.5285   21.7627 He  0  0  0  0  0  0  0  0  0  0  0  0
   11.3999    9.0168   19.6839 He  0  0  0  0  0  0  0  0  0  0  0  0
    4.3547    8.8172   20.1233 He  0  0  0  0  0  0  0  0  0  0  0  0
  1  9  3  0
  1 13  3  0
  2  3  1  0
  2  4  2  0
  2  5  4  0
  2  9  4  0
  2 10  4  0
  2 13  3  0
  3  4  2  0
  3  6  1  0
  3 11  1  0
  3 12  4  0
  3 13  1  0
  4  5  1  0
  4  8  2  0
  5  6  2  0
  6 12  4  0
  6 14  3  0
  7  9  4  0
  7 11  4  0
  7 12  2  0
  8 11  2  0
  8 14  3  0
  9 10  2  0
  9 11  4  0
 10 11  2  0
 10 13  1  0
 11 13  4  0
M  END
$$$$

 Created by Python create_sdf_string function

 28  1  0  0  0  0  0  0  0  0999 V2000
   11.2574    6.6669   19.3641 C   0  0  0  0  0  0  0  0  0  0  0  0
    5.9165    6.8594   20.2228 C   0  0  0  0  0  0  0  0  0  0  0  0
   11.0802    9.1714   20.4627 C   0  0  0  0  0  0  0  0  0  0  0  0
    7.1102    7.5754   22.6848 C   0  0  0  0  0  0  0  0  0  0  0  0
   12.1446    8.4028   21.0400 C   0  0  0  0  0  0  0  0  0  0  0  0
    9.0423   10.0118   19.9169 C   0  0  0  0  0  0  0  0  0  0  0  0
   11.2188    9.4971   22.1414 C   0  0  0  0  0  0  0  0  0  0  0  0
    6.0845    7.1159   23.2575 C   0  0  0  0  0  0  0  0  0  0  0  0
   11.5809    7.5185   21.3978 C   0  0  0  0  0  0  0  0  0  0  0  0
    8.0228    7.5227   24.5936 C   0  0  0  0  0  0  0  0  0  0  0  0
    8.1276    8.7951   21.6523 C   0  0  0  0  0  0  0  0  0  0  0  0
    6.6464    8.4180   24.4301 C   0  0  0  0  0  0  0  0  0  0  0  0
   11.2595    8.9887   22.8382 C   0  0  0  0  0  0  0  0  0  0  0  0
    9.8349    8.1697   20.7311 C   0  0  0  0  0  0  0  0  0  0  0  0
    6.2891    8.7065   18.8424 C   0  0  0  0  0  0  0  0  0  0  0  0
    6.1244    6.8996   19.7595 C   0  0  0  0  0  0  0  0  0  0  0  0
   11.8456    9.1824   21.3044 C   0  0  0  0  0  0  0  0  0  0  0  0
   13.0285    8.0126   21.9788 C   0  0  0  0  0  0  0  0  0  0  0  0
    8.4647    7.7769   21.8837 C   0  0  0  0  0  0  0  0  0  0  0  0
   10.3766    7.1796   19.3096 C   0  0  0  0  0  0  0  0  0  0  0  0
    5.3273    8.2253   20.1319 C   0  0  0  0  0  0  0  0  0  0  0  0
    6.7980    8.1165   25.1369 C   0  0  0  0  0  0  0  0  0  0  0  0
   11.0226    8.8674   19.6095 C   0  0  0  0  0  0  0  0  0  0  0  0
    7.2663    8.4175   21.4257 C   0  0  0  0  0  0  0  0  0  0  0  0
    6.2942    7.5794   19.1439 C   0  0  0  0  0  0  0  0  0  0  0  0
    7.9410    7.8858   17.8728 C   0  0  0  0  0  0  0  0  0  0  0  0
    4.7563    8.5502   19.7322 C   0  0  0  0  0  0  0  0  0  0  0  0
    6.1756    8.2286   23.4909 C   0  0  0  0  0  0  0  0  0  0  0  0
 12 22  1  0
M  END
$$$$

 Created by Python create_sdf_string function

 28 29  0  0  0  0  0  0  0  0999 V2000
   10.3387    6.3974   22.0483 O   0  0  0  0  0  0  0  0  0  0  0  0
    8.5859    7.5478   23.9547 N   0  0  0  0  0  0  0  0  0  0  0  0
    9.4800    7.7452   20.4535 C   0  0  0  0  0  0  0  0  0  0  0  0
    6.8450    8.6697   23.2945 O   0  0  0  0  0  0  0  0  0  0  0  0
   11.3938    9.7201   23.7406 O   0  0  0  0  0  0  0  0  0  0  0  0
   12.0125    8.5499   19.6198 F   0  0  0  0  0  0  0  0  0  0  0  0
    5.3632    7.3057   20.8243 O   0  0  0  0  0  0  0  0  0  0  0  0
   11.2687    8.3434   21.1354 I   0  0  0  0  0  0  0  0  0  0  0  0
   12.6060    9.8454   22.3992 C   0  0  0  0  0  0  0  0  0  0  0  0
    9.4576    6.9878   20.1639 C   0  0  0  0  0  0  0  0  0  0  0  0
   10.2294    6.6221   17.9817 C   0  0  0  0  0  0  0  0  0  0  0  0
    5.9108    8.7901   24.0101 C   0  0  0  0  0  0  0  0  0  0  0  0
    6.3604    5.5292   19.8308 C   0  0  0  0  0  0  0  0  0  0  0  0
   12.7780    5.7533   21.3178 He  0  0  0  0  0  0  0  0  0  0  0  0
    5.3224    7.8034   19.2897 He  0  0  0  0  0  0  0  0  0  0  0  0
    9.4304    8.2050   20.1356 He  0  0  0  0  0  0  0  0  0  0  0  0
    7.4393    8.1030   22.3179 He  0  0  0  0  0  0  0  0  0  0  0  0
   12.3217    7.5990   20.4165 He  0  0  0  0  0  0  0  0  0  0  0  0
    7.0223    9.9399   21.5803 He  0  0  0  0  0  0  0  0  0  0  0  0
   10.1535   10.1809   22.9738 He  0  0  0  0  0  0  0  0  0  0  0  0
    5.7863    6.1678   22.0945 He  0  0  0  0  0  0  0  0  0  0  0  0
    4.5228    9.3125   18.1047 He  0  0  0  0  0  0  0  0  0  0  0  0
    5.8163    8.7193   18.9969 He  0  0  0  0  0  0  0  0  0  0  0  0
   11.8052    8.3420   20.4353 He  0  0  0  0  0  0  0  0  0  0  0  0
    7.0977    8.1126   22.0499 He  0  0  0  0  0  0  0  0  0  0  0  0
    9.1661   10.5101   16.0663 He  0  0  0  0  0  0  0  0  0  0  0  0
    4.8799    9.3277   18.8884 He  0  0  0  0  0  0  0  0  0  0  0  0
    5.1105    8.0839   24.5846 He  0  0  0  0  0  0  0  0  0  0  0  0
  1  4  1  0
  1 11  4  0
  2  3  3  0
  2  4  3  0
  2  7  2  0
  2  8  1  0
  2 11  4  0
  2 13  3  0
  3  6  1  0
  3 10  3  0
  3 11  3  0
  3 12  4  0
  3 13  4  0
  4  6  2  0
  4 11  3  0
  4 12  3  0
  5  6  1  0
  6 10  2  0
  6 11  1  0
  7  8  2  0
  7  9  4  0
  7 10  3  0
  7 12  2  0
  8 10  1  0
  8 13  3  0
  9 12  4  0
  9 13  3  0
 10 12  3  0
 11 12  4  0
M  END
$$$$

 Created by Python create_sdf_string function

 28  0  0  0  0  0  0  0  0  0999 V2000
   12.3266    6.5602   21.0072 C   0  0  0  0  0  0  0  0  0  0  0  0
    5.4156    7.8450   19.3786 C   0  0  0  0  0  0  0  0  0  0  0  0
    9.0656    8.2413   19.5895 C   0  0  0  0  0  0  0  0  0  0  0  0
    7.5708    8.0909   22.4457 C   0  0  0  0  0  0  0  0  0  0  0  0
   12.1576    7.4918   20.5307 C   0  0  0  0  0  0  0  0  0  0  0  0
    7.1046    9.4294   21.5378 C   0  0  0  0  0  0  0  0  0  0  0  0
   10.4747    9.4808   22.8740 C   0  0  0  0  0  0  0  0  0  0  0  0
    5.8977    6.8017   22.1139 C   0  0  0  0  0  0  0  0  0  0  0  0
   10.5250    6.9288   21.9219 C   0  0  0  0  0  0  0  0  0  0  0  0
    8.3802    7.9854   23.4588 C   0  0  0  0  0  0  0  0  0  0  0  0
    9.4513    7.9185   20.4267 C   0  0  0  0  0  0  0  0  0  0  0  0
    6.8327    8.6186   23.4371 C   0  0  0  0  0  0  0  0  0  0  0  0
   11.2240    9.3937   23.2434 O   0  0  0  0  0  0  0  0  0  0  0  0
   11.6892    8.1479   19.6658 C   0  0  0  0  0  0  0  0  0  0  0  0
    5.0887    9.0362   18.8523 C   0  0  0  0  0  0  0  0  0  0  0  0
    5.5817    7.5137   20.6711 C   0  0  0  0  0  0  0  0  0  0  0  0
   11.0983    8.3056   21.4049 C   0  0  0  0  0  0  0  0  0  0  0  0
   12.0458    9.4341   22.3069 C   0  0  0  0  0  0  0  0  0  0  0  0
    9.3418    7.4938   19.8898 C   0  0  0  0  0  0  0  0  0  0  0  0
   10.0694    7.7060   18.4183 C   0  0  0  0  0  0  0  0  0  0  0  0
    6.1983    8.6384   19.0891 C   0  0  0  0  0  0  0  0  0  0  0  0
    6.2156    8.5627   23.9096 C   0  0  0  0  0  0  0  0  0  0  0  0
   11.6347    8.2123   20.5264 C   0  0  0  0  0  0  0  0  0  0  0  0
    7.1080    8.0856   22.3109 C   0  0  0  0  0  0  0  0  0  0  0  0
    6.2497    6.7588   19.8435 C   0  0  0  0  0  0  0  0  0  0  0  0
    8.8153    9.0017   17.6565 O   0  0  0  0  0  0  0  0  0  0  0  0
    5.2787    9.0379   19.1692 C   0  0  0  0  0  0  0  0  0  0  0  0
    5.6366    7.9188   24.0919 C   0  0  0  0  0  0  0  0  0  0  0  0
M  END
$$$$

 Created by Python create_sdf_string function

 28 71  0  0  0  0  0  0  0  0999 V2000
   12.3878    5.6036   21.0019 C   0  0  0  0  0  0  0  0  0  0  0  0
    5.3621    8.9454   19.5019 C   0  0  0  0  0  0  0  0  0  0  0  0
    9.2027    8.2011   22.5537 S   0  0  0  0  0  0  0  0  0  0  0  0
   13.1188    7.9459   20.6286 S   0  0  0  0  0  0  0  0  0  0  0  0
    7.0050    5.6501   21.9682 Se  0  0  0  0  0  0  0  0  0  0  0  0
   11.7117    5.6525   23.1073 Se  0  0  0  0  0  0  0  0  0  0  0  0
    8.9367    8.4733   22.5475 O   0  0  0  0  0  0  0  0  0  0  0  0
    9.4706    7.4839   22.4625 F   0  0  0  0  0  0  0  0  0  0  0  0
    5.3606    8.3774   23.5029 C   0  0  0  0  0  0  0  0  0  0  0  0
   10.5036    9.2043   23.3730 O   0  0  0  0  0  0  0  0  0  0  0  0
    5.2014    8.3385   20.4318 C   0  0  0  0  0  0  0  0  0  0  0  0
   11.1339    9.1709   22.4748 S   0  0  0  0  0  0  0  0  0  0  0  0
    7.2722    7.6353   19.9259 F   0  0  0  0  0  0  0  0  0  0  0  0
    9.8288    7.4055   18.0539 S   0  0  0  0  0  0  0  0  0  0  0  0
    6.3120    9.0241   17.5869 C   0  0  0  0  0  0  0  0  0  0  0  0
    6.1854    9.6111   25.2764 P   0  0  0  0  0  0  0  0  0  0  0  0
    7.0800    8.2271   19.4468 N   0  0  0  0  0  0  0  0  0  0  0  0
    9.2450   10.3204   19.4245 C   0  0  0  0  0  0  0  0  0  0  0  0
    6.6499    8.8757   20.2216 B   0  0  0  0  0  0  0  0  0  0  0  0
    5.1520    6.4827   24.1361 C   0  0  0  0  0  0  0  0  0  0  0  0
   10.0445    5.8914   20.4287 He  0  0  0  0  0  0  0  0  0  0  0  0
    6.7368   10.8770   21.5105 He  0  0  0  0  0  0  0  0  0  0  0  0
   10.1889    9.0945   21.4872 He  0  0  0  0  0  0  0  0  0  0  0  0
   12.0121    9.5968   18.8385 He  0  0  0  0  0  0  0  0  0  0  0  0
    4.8730    7.0144   18.6720 He  0  0  0  0  0  0  0  0  0  0  0  0
    9.9186    8.4985   21.1117 He  0  0  0  0  0  0  0  0  0  0  0  0
   12.9655    9.1286   20.2147 He  0  0  0  0  0  0  0  0  0  0  0  0
    8.4968    8.9492   22.0128 He  0  0  0  0  0  0  0  0  0  0  0  0
  1  7  4  0
  1  9  4  0
  1 12  3  0
  1 13  4  0
  1 14  2  0
  1 18  2  0
  2  5  4  0
  2 10  3  0
  2 12  4  0
  2 13  2  0
  2 19  2  0
  2 20  2  0
  3  5  1  0
  3  6  4  0
  3 10  4  0
  3 13  3  0
  3 15  1  0
  3 16  2  0
  4  8  2  0
  4 10  4  0
  4 14  3  0
  4 17  1  0
  4 18  1  0
  5  9  3  0
  5 19  1  0
  5 20  2  0
  6  9  1  0
  6 10  1  0
  6 14  1  0
  6 15  2  0
  6 18  4  0
  7  8  3  0
  7 10  2  0
  7 11  2  0
  7 12  1  0
  7 13  2  0
  7 16  1  0
  7 18  2  0
  7 19  2  0
  8 12  1  0
  8 13  3  0
  8 14  1  0
  8 18  1  0
  8 19  1  0
  8 20  4  0
  9 10  1  0
  9 12  2  0
  9 16  1  0
  9 18  4  0
  9 19  4  0
 10 12  2  0
 10 15  1  0
 10 19  1  0
 10 20  3  0
 11 12  3  0
 11 14  3  0
 11 15  3  0
 11 16  4  0
 11 18  4  0
 12 14  3  0
 12 18  4  0
 12 20  1  0
 13 15  4  0
 13 16  1  0
 13 19  3  0
 14 17  3  0
 14 18  1  0
 15 20  1  0
 16 18  1  0
 16 19  3  0
 17 20  1  0
M  END
$$$$

 Created by Python create_sdf_string function

 28  4  0  0  0  0  0  0  0  0999 V2000
   11.9511    6.2162   21.0175 C   0  0  0  0  0  0  0  0  0  0  0  0
    5.5084    8.7582   19.6319 C   0  0  0  0  0  0  0  0  0  0  0  0
   10.5834    6.2263   20.9771 C   0  0  0  0  0  0  0  0  0  0  0  0
    8.9391    7.9765   22.6971 C   0  0  0  0  0  0  0  0  0  0  0  0
   12.4866    8.1697   20.5004 C   0  0  0  0  0  0  0  0  0  0  0  0
    6.8940   10.2635   21.6883 C   0  0  0  0  0  0  0  0  0  0  0  0
   10.2381    9.1054   21.2869 C   0  0  0  0  0  0  0  0  0  0  0  0
    7.0468    6.5447   22.4274 C   0  0  0  0  0  0  0  0  0  0  0  0
   11.3510    6.0114   22.5971 C   0  0  0  0  0  0  0  0  0  0  0  0
    8.4424    8.5424   22.8789 C   0  0  0  0  0  0  0  0  0  0  0  0
    9.5226    7.3760   22.4271 C   0  0  0  0  0  0  0  0  0  0  0  0
    6.0561    8.3125   23.5268 C   0  0  0  0  0  0  0  0  0  0  0  0
   10.4585    9.0336   23.2795 O   0  0  0  0  0  0  0  0  0  0  0  0
   11.8761    9.2990   19.4053 C   0  0  0  0  0  0  0  0  0  0  0  0
    5.2275    7.3404   18.9079 C   0  0  0  0  0  0  0  0  0  0  0  0
    5.4062    8.2843   20.0785 C   0  0  0  0  0  0  0  0  0  0  0  0
   10.3659    8.3786   21.0151 C   0  0  0  0  0  0  0  0  0  0  0  0
   10.9277    8.8949   22.2377 C   0  0  0  0  0  0  0  0  0  0  0  0
    7.0889    7.8568   19.5243 C   0  0  0  0  0  0  0  0  0  0  0  0
    9.8548    8.0647   18.7202 C   0  0  0  0  0  0  0  0  0  0  0  0
    6.7991    8.6662   18.2724 C   0  0  0  0  0  0  0  0  0  0  0  0
    6.3500    8.9866   24.3034 C   0  0  0  0  0  0  0  0  0  0  0  0
   12.4590    8.8788   20.1844 C   0  0  0  0  0  0  0  0  0  0  0  0
    8.3212    8.9780   22.1461 C   0  0  0  0  0  0  0  0  0  0  0  0
    7.0222    8.2852   19.2542 C   0  0  0  0  0  0  0  0  0  0  0  0
    9.3267    9.7569   19.5412 C   0  0  0  0  0  0  0  0  0  0  0  0
    6.5789    8.7958   20.4103 C   0  0  0  0  0  0  0  0  0  0  0  0
    5.7932    7.2574   23.7407 C   0  0  0  0  0  0  0  0  0  0  0  0
  5 23  1  0
 12 22  1  0
 12 28  1  0
 14 23  1  0
M  END
$$$$

 Created by Python create_sdf_string function

 28 38  0  0  0  0  0  0  0  0999 V2000
   12.3111    6.9934   21.4495 C   0  0  0  0  0  0  0  0  0  0  0  0
    5.8981    9.1985   19.4182 F   0  0  0  0  0  0  0  0  0  0  0  0
    8.2585    9.3565   22.5325 I   0  0  0  0  0  0  0  0  0  0  0  0
    6.0992   10.2219   21.8233 F   0  0  0  0  0  0  0  0  0  0  0  0
    9.9476    9.2513   21.8081 C   0  0  0  0  0  0  0  0  0  0  0  0
    8.9008    6.1369   23.4336 S   0  0  0  0  0  0  0  0  0  0  0  0
    8.8271    9.3108   22.8179 C   0  0  0  0  0  0  0  0  0  0  0  0
    5.8962    8.7255   24.7012 Cl  0  0  0  0  0  0  0  0  0  0  0  0
   10.8699    9.4210   23.0041 O   0  0  0  0  0  0  0  0  0  0  0  0
    3.7658    8.0924   17.8212 F   0  0  0  0  0  0  0  0  0  0  0  0
    9.9128    7.4105   19.8539 S   0  0  0  0  0  0  0  0  0  0  0  0
    9.7523    9.6561   22.0573 C   0  0  0  0  0  0  0  0  0  0  0  0
   10.9236    7.2710   17.5776 C   0  0  0  0  0  0  0  0  0  0  0  0
    6.2640    8.4080   18.9660 Cl  0  0  0  0  0  0  0  0  0  0  0  0
   10.5853   10.2043   19.9592 C   0  0  0  0  0  0  0  0  0  0  0  0
   12.1853    7.5265   19.5005 He  0  0  0  0  0  0  0  0  0  0  0  0
   12.3400    9.9076   20.1664 He  0  0  0  0  0  0  0  0  0  0  0  0
    7.8052    6.1779   22.0668 He  0  0  0  0  0  0  0  0  0  0  0  0
    8.3457    5.9908   21.8655 He  0  0  0  0  0  0  0  0  0  0  0  0
   12.0805   10.4557   17.9471 He  0  0  0  0  0  0  0  0  0  0  0  0
    4.8759    6.3280   21.3227 He  0  0  0  0  0  0  0  0  0  0  0  0
    6.6148    7.2882   19.6633 He  0  0  0  0  0  0  0  0  0  0  0  0
    8.2779    8.3698   25.1157 He  0  0  0  0  0  0  0  0  0  0  0  0
   12.4220    8.5827   19.6820 He  0  0  0  0  0  0  0  0  0  0  0  0
    8.1989    9.0864   20.0606 He  0  0  0  0  0  0  0  0  0  0  0  0
    8.5848    8.3471   21.8734 He  0  0  0  0  0  0  0  0  0  0  0  0
    7.0970   10.2123   21.6422 He  0  0  0  0  0  0  0  0  0  0  0  0
    4.6265    8.0489   22.9460 He  0  0  0  0  0  0  0  0  0  0  0  0
  1  3  2  0
  1  4  3  0
  1  5  2  0
  1  6  1  0
  1  8  3  0
  1 10  3  0
  1 14  2  0
  1 15  3  0
  2  4  1  0
  2 10  1  0
  3  4  2  0
  3  6  1  0
  3  7  4  0
  3 10  1  0
  3 12  1  0
  3 14  3  0
  3 15  4  0
  4  6  2  0
  4 10  3  0
  4 11  2  0
  5  6  1  0
  5  7  3  0
  5  8  2  0
  5 13  1  0
  6  8  4  0
  6 10  4  0
  6 14  3  0
  7 10  1  0
  7 14  2  0
  8  9  2  0
  8 13  1  0
  9 10  4  0
  9 14  2  0
 10 11  1  0
 10 12  2  0
 10 14  4  0
 10 15  3  0
 12 15  4  0
M  END
$$$$

 Created by Python create_sdf_string function

 28  4  0  0  0  0  0  0  0  0999 V2000
   11.8235    7.3945   20.9279 C   0  0  0  0  0  0  0  0  0  0  0  0
    5.7338    8.9160   19.6518 C   0  0  0  0  0  0  0  0  0  0  0  0
   11.9576    7.5253   19.3569 C   0  0  0  0  0  0  0  0  0  0  0  0
    8.2694    9.2217   22.7241 C   0  0  0  0  0  0  0  0  0  0  0  0
   12.1284    9.8291   20.0717 C   0  0  0  0  0  0  0  0  0  0  0  0
    6.1695    9.6082   21.7750 C   0  0  0  0  0  0  0  0  0  0  0  0
   10.1654    9.1445   21.6275 C   0  0  0  0  0  0  0  0  0  0  0  0
    7.9772    6.4018   22.2678 C   0  0  0  0  0  0  0  0  0  0  0  0
    8.7080    6.4281   23.3118 C   0  0  0  0  0  0  0  0  0  0  0  0
    8.6186    9.2485   22.8303 C   0  0  0  0  0  0  0  0  0  0  0  0
    8.3290    6.3031   22.1716 C   0  0  0  0  0  0  0  0  0  0  0  0
    6.3268    8.7127   24.1234 C   0  0  0  0  0  0  0  0  0  0  0  0
   10.8476    9.4097   22.8856 O   0  0  0  0  0  0  0  0  0  0  0  0
   11.9125   10.0200   18.4849 C   0  0  0  0  0  0  0  0  0  0  0  0
    4.5494    8.0373   18.9537 O   0  0  0  0  0  0  0  0  0  0  0  0
    5.2014    7.2158   21.1565 C   0  0  0  0  0  0  0  0  0  0  0  0
   10.4335    7.5423   19.8199 C   0  0  0  0  0  0  0  0  0  0  0  0
    9.8726    9.5660   21.8867 C   0  0  0  0  0  0  0  0  0  0  0  0
    6.1893    7.6072   19.7256 C   0  0  0  0  0  0  0  0  0  0  0  0
   11.2724    7.5919   18.3690 C   0  0  0  0  0  0  0  0  0  0  0  0
    6.0604    8.1774   19.2623 C   0  0  0  0  0  0  0  0  0  0  0  0
    8.0070    8.1849   24.4277 C   0  0  0  0  0  0  0  0  0  0  0  0
   12.1298    8.6364   19.6368 C   0  0  0  0  0  0  0  0  0  0  0  0
    8.0324    8.9495   20.1054 C   0  0  0  0  0  0  0  0  0  0  0  0
    8.5812    8.2669   22.0894 C   0  0  0  0  0  0  0  0  0  0  0  0
   11.0110    9.8900   19.8217 C   0  0  0  0  0  0  0  0  0  0  0  0
    6.8528    9.8831   21.9768 C   0  0  0  0  0  0  0  0  0  0  0  0
    5.2109    8.1332   22.4764 C   0  0  0  0  0  0  0  0  0  0  0  0
  3 20  1  0
  4 10  1  0
  8 11  1  0
 19 21  1  0
M  END
$$$$

 Created by Python create_sdf_string function

 28 37  0  0  0  0  0  0  0  0999 V2000
   12.0524    6.6877   21.9791 B   0  0  0  0  0  0  0  0  0  0  0  0
    9.1171    9.5609   23.5564 C   0  0  0  0  0  0  0  0  0  0  0  0
   13.6847    9.9574   20.4680 N   0  0  0  0  0  0  0  0  0  0  0  0
    6.4117    8.6461   23.5416 N   0  0  0  0  0  0  0  0  0  0  0  0
    7.4076    6.4298   22.7455 Cl  0  0  0  0  0  0  0  0  0  0  0  0
    8.2337    7.9505   22.1069 Cl  0  0  0  0  0  0  0  0  0  0  0  0
    7.7578   10.1944   22.2410 Se  0  0  0  0  0  0  0  0  0  0  0  0
   11.5341    9.8094   22.2263 Cl  0  0  0  0  0  0  0  0  0  0  0  0
   10.9549   11.1202   18.5343 C   0  0  0  0  0  0  0  0  0  0  0  0
   11.8197    7.3926   18.0225 Cl  0  0  0  0  0  0  0  0  0  0  0  0
    5.4195    8.3326   18.1947 Se  0  0  0  0  0  0  0  0  0  0  0  0
    6.8531    7.9132   23.5417 C   0  0  0  0  0  0  0  0  0  0  0  0
   13.2904    7.7921   19.3835 Cl  0  0  0  0  0  0  0  0  0  0  0  0
    9.2898    6.7528   21.2502 Cl  0  0  0  0  0  0  0  0  0  0  0  0
    5.5615    6.2469   22.2695 N   0  0  0  0  0  0  0  0  0  0  0  0
    6.6773    9.0562   18.7910 He  0  0  0  0  0  0  0  0  0  0  0  0
   12.8428    8.0987   20.8295 He  0  0  0  0  0  0  0  0  0  0  0  0
    9.5900    7.2127   21.8454 He  0  0  0  0  0  0  0  0  0  0  0  0
    8.8711    4.8903   20.1248 He  0  0  0  0  0  0  0  0  0  0  0  0
    7.0814    9.8330   24.1074 He  0  0  0  0  0  0  0  0  0  0  0  0
    3.9820    7.8798   19.0633 He  0  0  0  0  0  0  0  0  0  0  0  0
    4.3551    6.3797   20.7968 He  0  0  0  0  0  0  0  0  0  0  0  0
   10.0288    9.4548   20.6159 He  0  0  0  0  0  0  0  0  0  0  0  0
   10.4552    9.8450   22.6448 He  0  0  0  0  0  0  0  0  0  0  0  0
    5.3470    6.9856   18.4461 He  0  0  0  0  0  0  0  0  0  0  0  0
    7.4962    9.6409   19.5658 He  0  0  0  0  0  0  0  0  0  0  0  0
   10.5778    9.0816   19.9188 He  0  0  0  0  0  0  0  0  0  0  0  0
    6.6867   10.0753   23.0952 He  0  0  0  0  0  0  0  0  0  0  0  0
  1 10  2  0
  1 14  1  0
  2  5  4  0
  2  6  3  0
  2  9  4  0
  2 11  3  0
  3  6  4  0
  3  7  3  0
  3  8  3  0
  3  9  1  0
  3 11  1  0
  3 13  4  0
  3 14  1  0
  4  9  3  0
  4 10  3  0
  4 11  2  0
  4 13  4  0
  5  7  2  0
  5  8  4  0
  5  9  2  0
  5 10  2  0
  5 15  2  0
  6  7  1  0
  6  8  2  0
  6 10  2  0
  7  8  1  0
  7 11  4  0
  7 14  3  0
  8 10  2  0
  8 11  3  0
  8 13  2  0
  9 15  1  0
 10 11  1  0
 10 13  1  0
 10 15  4  0
 11 12  1  0
 12 15  1  0
M  END
$$$$

 Created by Python create_sdf_string function

 28  3  0  0  0  0  0  0  0  0999 V2000
   11.5847    7.0614   21.3860 C   0  0  0  0  0  0  0  0  0  0  0  0
    6.5245    8.4891   19.1856 C   0  0  0  0  0  0  0  0  0  0  0  0
   12.2925    8.0009   20.5381 C   0  0  0  0  0  0  0  0  0  0  0  0
    9.0062    9.5658   23.0586 C   0  0  0  0  0  0  0  0  0  0  0  0
   12.9098    9.6622   20.2280 C   0  0  0  0  0  0  0  0  0  0  0  0
    6.4896    8.6729   23.3980 C   0  0  0  0  0  0  0  0  0  0  0  0
    9.6214    7.1818   21.7689 C   0  0  0  0  0  0  0  0  0  0  0  0
    7.2031    6.5125   22.5252 C   0  0  0  0  0  0  0  0  0  0  0  0
    8.1904    7.9323   22.2065 C   0  0  0  0  0  0  0  0  0  0  0  0
    7.9649    9.9613   22.4248 C   0  0  0  0  0  0  0  0  0  0  0  0
    8.8110    5.8763   20.7778 C   0  0  0  0  0  0  0  0  0  0  0  0
    7.0801    9.7979   23.8677 C   0  0  0  0  0  0  0  0  0  0  0  0
   11.2628    9.7076   21.9698 C   0  0  0  0  0  0  0  0  0  0  0  0
   11.0979   10.3592   19.1761 C   0  0  0  0  0  0  0  0  0  0  0  0
    4.4427    7.8163   19.1106 C   0  0  0  0  0  0  0  0  0  0  0  0
    5.0261    6.8970   20.4614 C   0  0  0  0  0  0  0  0  0  0  0  0
   10.1219    9.5169   20.5176 C   0  0  0  0  0  0  0  0  0  0  0  0
   10.2366    9.7272   22.3142 C   0  0  0  0  0  0  0  0  0  0  0  0
    5.3556    7.1290   19.0827 C   0  0  0  0  0  0  0  0  0  0  0  0
   11.9309    7.7820   18.9035 C   0  0  0  0  0  0  0  0  0  0  0  0
    5.6367    8.0669   19.1227 C   0  0  0  0  0  0  0  0  0  0  0  0
    6.7889    7.6001   23.1360 C   0  0  0  0  0  0  0  0  0  0  0  0
   12.7367    8.0816   19.5153 C   0  0  0  0  0  0  0  0  0  0  0  0
    7.2475    8.9911   19.5543 C   0  0  0  0  0  0  0  0  0  0  0  0
    9.4192    6.8579   21.4512 C   0  0  0  0  0  0  0  0  0  0  0  0
   10.9860    9.0390   20.0487 C   0  0  0  0  0  0  0  0  0  0  0  0
    6.8879    9.9044   23.2037 C   0  0  0  0  0  0  0  0  0  0  0  0
    5.8688    6.6948   22.0326 C   0  0  0  0  0  0  0  0  0  0  0  0
  2 21  4  0
  7 25  4  0
 20 23  1  0
M  END
$$$$

 Created by Python create_sdf_string function

 28 55  0  0  0  0  0  0  0  0999 V2000
   12.5315    7.6041   20.8387 Se  0  0  0  0  0  0  0  0  0  0  0  0
    8.8666    9.7605   22.9937 C   0  0  0  0  0  0  0  0  0  0  0  0
   12.3961    9.8449   19.9593 C   0  0  0  0  0  0  0  0  0  0  0  0
    7.4213    5.8917   22.0167 C   0  0  0  0  0  0  0  0  0  0  0  0
    9.5554    6.0939   21.2399 N   0  0  0  0  0  0  0  0  0  0  0  0
   11.5087   11.0574   18.5415 O   0  0  0  0  0  0  0  0  0  0  0  0
    4.9738    6.7533   19.7394 F   0  0  0  0  0  0  0  0  0  0  0  0
   11.1231    9.8989   19.5843 N   0  0  0  0  0  0  0  0  0  0  0  0
   10.0721   10.7461   21.7262 Br  0  0  0  0  0  0  0  0  0  0  0  0
    6.2812    7.1648   18.7246 N   0  0  0  0  0  0  0  0  0  0  0  0
   11.0778    9.0034   18.9128 C   0  0  0  0  0  0  0  0  0  0  0  0
    7.8871    8.1578   24.3873 C   0  0  0  0  0  0  0  0  0  0  0  0
    7.7578    8.9496   19.9881 C   0  0  0  0  0  0  0  0  0  0  0  0
   10.6610    7.3136   21.4601 C   0  0  0  0  0  0  0  0  0  0  0  0
    7.5364   10.0643   23.9171 F   0  0  0  0  0  0  0  0  0  0  0  0
    7.4536    4.6350   22.5434 C   0  0  0  0  0  0  0  0  0  0  0  0
   12.1042    7.0539   20.8371 He  0  0  0  0  0  0  0  0  0  0  0  0
    6.0311    9.9778   19.6888 He  0  0  0  0  0  0  0  0  0  0  0  0
    8.4067   10.3347   24.3849 He  0  0  0  0  0  0  0  0  0  0  0  0
   10.3342    9.5903   22.5011 He  0  0  0  0  0  0  0  0  0  0  0  0
    9.7928    7.8736   21.3457 He  0  0  0  0  0  0  0  0  0  0  0  0
    6.8788    9.7817   23.6335 He  0  0  0  0  0  0  0  0  0  0  0  0
    6.8018   10.0055   24.0355 He  0  0  0  0  0  0  0  0  0  0  0  0
   10.7646    9.2077   20.8965 He  0  0  0  0  0  0  0  0  0  0  0  0
    5.4391    7.7483   19.6453 He  0  0  0  0  0  0  0  0  0  0  0  0
    6.3731    8.7754   18.3662 He  0  0  0  0  0  0  0  0  0  0  0  0
   11.5902    8.9888   19.6245 He  0  0  0  0  0  0  0  0  0  0  0  0
   11.7210    9.0323   19.1366 He  0  0  0  0  0  0  0  0  0  0  0  0
  1  2  2  0
  1  4  4  0
  1 11  3  0
  1 12  1  0
  1 14  1  0
  2  3  3  0
  2  4  2  0
  2  5  2  0
  2  6  1  0
  2  8  4  0
  2 10  4  0
  2 11  4  0
  2 12  2  0
  2 13  4  0
  2 14  1  0
  2 16  3  0
  3  4  2  0
  3  8  2  0
  3  9  1  0
  3 13  3  0
  3 14  3  0
  4  5  1  0
  4  6  1  0
  4  7  4  0
  4 11  3  0
  5  6  4  0
  5  8  2  0
  5 14  3  0
  5 15  3  0
  5 16  1  0
  6  7  2  0
  6  8  4  0
  6 10  2  0
  6 14  3  0
  7  8  1  0
  7  9  1  0
  7 10  1  0
  7 13  2  0
  7 14  2  0
  7 15  3  0
  7 16  3  0
  8  9  3  0
  8 10  4  0
  8 12  1  0
  8 15  3  0
  9 10  4  0
  9 14  3  0
  9 15  2  0
 10 11  3  0
 10 14  4  0
 12 13  1  0
 12 15  4  0
 13 15  1  0
 14 15  2  0
 15 16  1  0
M  END
$$$$

 Created by Python create_sdf_string function

 28  5  0  0  0  0  0  0  0  0999 V2000
   12.0085    7.0337   20.7458 C   0  0  0  0  0  0  0  0  0  0  0  0
    6.0457    9.1516   19.5487 C   0  0  0  0  0  0  0  0  0  0  0  0
   12.1449    7.5816   20.7163 C   0  0  0  0  0  0  0  0  0  0  0  0
    8.9036    9.6230   22.9055 C   0  0  0  0  0  0  0  0  0  0  0  0
   12.2870    9.9755   19.7671 C   0  0  0  0  0  0  0  0  0  0  0  0
    8.1891   10.2841   24.1322 C   0  0  0  0  0  0  0  0  0  0  0  0
    9.9261    9.5384   22.5284 C   0  0  0  0  0  0  0  0  0  0  0  0
    7.6950    6.3651   21.4405 C   0  0  0  0  0  0  0  0  0  0  0  0
    9.5360    7.9666   21.5565 C   0  0  0  0  0  0  0  0  0  0  0  0
    7.0804    9.6543   23.6551 C   0  0  0  0  0  0  0  0  0  0  0  0
    9.0704    6.0621   21.5801 C   0  0  0  0  0  0  0  0  0  0  0  0
    6.8659    9.9230   23.9908 C   0  0  0  0  0  0  0  0  0  0  0  0
   10.7387    9.1273   21.0396 C   0  0  0  0  0  0  0  0  0  0  0  0
   11.5863   10.9211   18.4856 O   0  0  0  0  0  0  0  0  0  0  0  0
    5.5526    7.7840   19.6316 C   0  0  0  0  0  0  0  0  0  0  0  0
    5.5298    7.0249   19.7618 C   0  0  0  0  0  0  0  0  0  0  0  0
   11.3025   10.2214   19.4183 C   0  0  0  0  0  0  0  0  0  0  0  0
   10.0784   10.5360   21.8019 C   0  0  0  0  0  0  0  0  0  0  0  0
    6.3438    7.3248   19.0715 C   0  0  0  0  0  0  0  0  0  0  0  0
   11.2268    9.0378   18.9266 C   0  0  0  0  0  0  0  0  0  0  0  0
    6.3355    8.4632   19.0007 C   0  0  0  0  0  0  0  0  0  0  0  0
    7.8382    8.4907   23.9167 C   0  0  0  0  0  0  0  0  0  0  0  0
   11.6786    8.8172   19.5584 C   0  0  0  0  0  0  0  0  0  0  0  0
    7.6981    8.3047   20.4803 C   0  0  0  0  0  0  0  0  0  0  0  0
   10.3178    7.2648   21.4958 C   0  0  0  0  0  0  0  0  0  0  0  0
   11.8650    9.0633   19.0933 C   0  0  0  0  0  0  0  0  0  0  0  0
    7.6838    9.9973   23.9363 C   0  0  0  0  0  0  0  0  0  0  0  0
    7.9326    5.5176   22.0907 C   0  0  0  0  0  0  0  0  0  0  0  0
  1  3  1  0
  2 21  4  0
  6 27  1  0
 11 28  1  0
 19 21  4  0
M  END
$$$$

 Created by Python create_sdf_string function

 28 57  0  0  0  0  0  0  0  0999 V2000
   13.1054    8.3583   19.0074 F   0  0  0  0  0  0  0  0  0  0  0  0
    4.7111   10.3900   19.0936 C   0  0  0  0  0  0  0  0  0  0  0  0
   13.2001    8.8892   20.1623 C   0  0  0  0  0  0  0  0  0  0  0  0
    7.5034   10.3196   23.8195 C   0  0  0  0  0  0  0  0  0  0  0  0
   12.6875    9.1681   22.0152 C   0  0  0  0  0  0  0  0  0  0  0  0
    8.1240    5.6516   20.5853 I   0  0  0  0  0  0  0  0  0  0  0  0
    9.3741    6.8079   20.1466 C   0  0  0  0  0  0  0  0  0  0  0  0
    8.1934    8.4004   24.2429 B   0  0  0  0  0  0  0  0  0  0  0  0
    9.3232    7.1431   20.6247 Cl  0  0  0  0  0  0  0  0  0  0  0  0
   11.6804    9.5810   18.5301 N   0  0  0  0  0  0  0  0  0  0  0  0
   10.5467   12.0194   23.5827 C   0  0  0  0  0  0  0  0  0  0  0  0
   10.4154    7.5866   20.2648 Br  0  0  0  0  0  0  0  0  0  0  0  0
    5.9443    9.3555   19.1303 C   0  0  0  0  0  0  0  0  0  0  0  0
   11.3336    8.0124   19.9262 N   0  0  0  0  0  0  0  0  0  0  0  0
    7.9571    7.3526   21.8257 N   0  0  0  0  0  0  0  0  0  0  0  0
   11.8911    9.6420   19.8779 F   0  0  0  0  0  0  0  0  0  0  0  0
    6.3572   11.6280   25.4945 N   0  0  0  0  0  0  0  0  0  0  0  0
   10.3980    6.3048   20.1075 N   0  0  0  0  0  0  0  0  0  0  0  0
   12.0430    5.4669   21.2171 He  0  0  0  0  0  0  0  0  0  0  0  0
    9.2281    9.2081   23.8061 He  0  0  0  0  0  0  0  0  0  0  0  0
    7.5254    9.1284   23.6089 He  0  0  0  0  0  0  0  0  0  0  0  0
    9.2558    8.1415   20.5302 He  0  0  0  0  0  0  0  0  0  0  0  0
    5.6827    5.8771   19.2820 He  0  0  0  0  0  0  0  0  0  0  0  0
    5.2616    6.3078   19.9421 He  0  0  0  0  0  0  0  0  0  0  0  0
   11.2409   10.3373   18.8044 He  0  0  0  0  0  0  0  0  0  0  0  0
    7.3011    5.1142   20.2813 He  0  0  0  0  0  0  0  0  0  0  0  0
    8.9049    6.5374   23.6945 He  0  0  0  0  0  0  0  0  0  0  0  0
   11.6169    7.0751   21.0215 He  0  0  0  0  0  0  0  0  0  0  0  0
  1  2  4  0
  1  4  2  0
  1  8  3  0
  1 11  1  0
  1 14  3  0
  1 15  2  0
  1 16  3  0
  1 18  4  0
  2  4  2  0
  2  9  3  0
  2 14  3  0
  2 15  1  0
  2 17  2  0
  3  4  4  0
  3 14  2  0
  3 16  4  0
  3 17  2  0
  4  5  1  0
  4  7  3  0
  4 13  1  0
  4 14  1  0
  4 15  4  0
  4 16  3  0
  5  8  4  0
  5  9  2  0
  5 13  3  0
  5 15  3  0
  6  7  4  0
  6  8  2  0
  6 10  4  0
  6 12  3  0
  6 13  1  0
  6 14  2  0
  6 17  1  0
  6 18  4  0
  7  8  4  0
  7  9  3  0
  7 12  2  0
  7 13  3  0
  7 14  4  0
  7 15  1  0
  7 18  4  0
  8 13  2  0
  8 16  3  0
  8 17  4  0
  9 10  4  0
  9 15  1  0
 10 15  1  0
 11 15  2  0
 11 17  3  0
 12 13  1  0
 12 17  4  0
 13 15  2  0
 14 17  4  0
 15 16  4  0
 15 18  4  0
 16 17  4  0
M  END
$$$$

 Created by Python create_sdf_string function

 28  3  0  0  0  0  0  0  0  0999 V2000
   12.9167    8.6466   19.1780 C   0  0  0  0  0  0  0  0  0  0  0  0
    5.4074    8.8729   19.4123 C   0  0  0  0  0  0  0  0  0  0  0  0
   11.9355    5.9033   21.0498 C   0  0  0  0  0  0  0  0  0  0  0  0
    8.9132    9.4098   23.7530 C   0  0  0  0  0  0  0  0  0  0  0  0
   13.0073    9.0266   20.2983 C   0  0  0  0  0  0  0  0  0  0  0  0
    7.8545   10.3834   23.9095 C   0  0  0  0  0  0  0  0  0  0  0  0
   12.5105    9.2147   21.6518 C   0  0  0  0  0  0  0  0  0  0  0  0
    7.8665    5.9702   20.4311 C   0  0  0  0  0  0  0  0  0  0  0  0
    8.9620    6.7469   20.4342 C   0  0  0  0  0  0  0  0  0  0  0  0
    7.6249    9.3740   23.6903 C   0  0  0  0  0  0  0  0  0  0  0  0
    8.1847    8.1858   20.7164 C   0  0  0  0  0  0  0  0  0  0  0  0
    8.2079    8.6135   23.9276 C   0  0  0  0  0  0  0  0  0  0  0  0
    8.8055    7.1827   20.9468 C   0  0  0  0  0  0  0  0  0  0  0  0
   11.7451    9.7711   18.6111 C   0  0  0  0  0  0  0  0  0  0  0  0
    5.5845    6.4672   19.3529 C   0  0  0  0  0  0  0  0  0  0  0  0
    5.5337    6.8036   19.3730 C   0  0  0  0  0  0  0  0  0  0  0  0
   11.4384   10.1508   19.0971 C   0  0  0  0  0  0  0  0  0  0  0  0
    9.4289   10.9711   23.8016 C   0  0  0  0  0  0  0  0  0  0  0  0
    6.9567    5.7172   20.0464 C   0  0  0  0  0  0  0  0  0  0  0  0
   10.6486    7.5264   20.3142 C   0  0  0  0  0  0  0  0  0  0  0  0
    6.0197    8.6195   19.5018 C   0  0  0  0  0  0  0  0  0  0  0  0
    8.7850    7.3237   23.4004 C   0  0  0  0  0  0  0  0  0  0  0  0
   11.5755    8.1206   20.0217 C   0  0  0  0  0  0  0  0  0  0  0  0
    7.9466    7.6584   21.7932 C   0  0  0  0  0  0  0  0  0  0  0  0
   11.9234    7.0580   20.9746 C   0  0  0  0  0  0  0  0  0  0  0  0
   12.0651    9.8135   19.8752 C   0  0  0  0  0  0  0  0  0  0  0  0
    7.1844   10.9418   24.7677 C   0  0  0  0  0  0  0  0  0  0  0  0
   10.2209    6.2120   20.3754 C   0  0  0  0  0  0  0  0  0  0  0  0
  2 21  4  0
  6 27  1  0
 15 16  4  0
M  END
$$$$

 Created by Python create_sdf_string function

 28 40  0  0  0  0  0  0  0  0999 V2000
   12.7982    9.9393   19.4989 C   0  0  0  0  0  0  0  0  0  0  0  0
   12.0837    5.9233   21.5139 C   0  0  0  0  0  0  0  0  0  0  0  0
   14.4703    9.8791   20.3639 C   0  0  0  0  0  0  0  0  0  0  0  0
    6.8629   11.2255   24.0479 O   0  0  0  0  0  0  0  0  0  0  0  0
   12.7715   10.4095   20.4661 C   0  0  0  0  0  0  0  0  0  0  0  0
    6.6827    4.5422   21.1440 Se  0  0  0  0  0  0  0  0  0  0  0  0
    8.5935    5.6063   19.6131 C   0  0  0  0  0  0  0  0  0  0  0  0
    7.0006    8.5813   23.9867 C   0  0  0  0  0  0  0  0  0  0  0  0
   12.0429    9.4243   17.1778 N   0  0  0  0  0  0  0  0  0  0  0  0
    6.0238    6.8917   19.6361 C   0  0  0  0  0  0  0  0  0  0  0  0
   10.3429   10.4927   24.1243 C   0  0  0  0  0  0  0  0  0  0  0  0
    7.4018    6.6109   20.6216 C   0  0  0  0  0  0  0  0  0  0  0  0
    8.8885    7.2163   22.5298 O   0  0  0  0  0  0  0  0  0  0  0  0
   10.5567    8.5264   18.2743 N   0  0  0  0  0  0  0  0  0  0  0  0
    5.9916    6.6138   23.6588 S   0  0  0  0  0  0  0  0  0  0  0  0
   10.9304    6.6072   21.9350 O   0  0  0  0  0  0  0  0  0  0  0  0
    6.3561   10.9076   25.1741 Cl  0  0  0  0  0  0  0  0  0  0  0  0
    4.8492    8.5793   19.2897 He  0  0  0  0  0  0  0  0  0  0  0  0
    8.4266    9.4068   24.5110 He  0  0  0  0  0  0  0  0  0  0  0  0
    7.4069   10.6120   24.3975 He  0  0  0  0  0  0  0  0  0  0  0  0
    7.6813    7.2335   21.1097 He  0  0  0  0  0  0  0  0  0  0  0  0
    9.7628    5.5300   19.8168 He  0  0  0  0  0  0  0  0  0  0  0  0
    4.9354    5.2545   18.7384 He  0  0  0  0  0  0  0  0  0  0  0  0
   12.0692    9.0597   18.2667 He  0  0  0  0  0  0  0  0  0  0  0  0
   11.9451    6.4032   21.0793 He  0  0  0  0  0  0  0  0  0  0  0  0
    6.2740    8.3462   19.9225 He  0  0  0  0  0  0  0  0  0  0  0  0
   12.2229    9.9214   20.9314 He  0  0  0  0  0  0  0  0  0  0  0  0
    9.8841    6.5990   20.5032 He  0  0  0  0  0  0  0  0  0  0  0  0
  1  2  4  0
  1  3  4  0
  1  7  2  0
  1 10  4  0
  1 11  1  0
  1 12  1  0
  1 15  3  0
  1 16  4  0
  2  8  1  0
  2 15  4  0
  3  5  3  0
  3  8  3  0
  3 10  3  0
  3 16  4  0
  4  6  3  0
  4  9  4  0
  4 10  1  0
  4 14  1  0
  4 17  4  0
  5  6  3  0
  5 17  2  0
  6 11  1  0
  6 12  4  0
  6 16  3  0
  6 17  2  0
  7 16  4  0
  8  9  3  0
  8 10  4  0
  8 11  3  0
  8 16  4  0
  9 16  3  0
  9 17  4  0
 10 13  1  0
 10 15  1  0
 11 12  3  0
 12 13  2  0
 12 14  3  0
 12 15  2  0
 13 17  2  0
 16 17  4  0
M  END
$$$$

 Created by Python create_sdf_string function

 28 15  0  0  0  0  0  0  0  0999 V2000
   12.7006    9.5647   19.3125 C   0  0  0  0  0  0  0  0  0  0  0  0
    5.2112    7.7503   19.2903 C   0  0  0  0  0  0  0  0  0  0  0  0
   11.7745    6.5856   21.0982 C   0  0  0  0  0  0  0  0  0  0  0  0
    8.1415    9.3508   23.9970 C   0  0  0  0  0  0  0  0  0  0  0  0
   13.6185   10.0298   20.1370 C   0  0  0  0  0  0  0  0  0  0  0  0
    7.0488   10.6506   24.1916 C   0  0  0  0  0  0  0  0  0  0  0  0
   12.7928    9.8835   20.4201 C   0  0  0  0  0  0  0  0  0  0  0  0
    6.6689    5.3796   20.3500 C   0  0  0  0  0  0  0  0  0  0  0  0
    8.4639    6.1942   20.2354 C   0  0  0  0  0  0  0  0  0  0  0  0
    7.3069   10.3186   24.4219 C   0  0  0  0  0  0  0  0  0  0  0  0
    7.9777    7.1768   21.8958 C   0  0  0  0  0  0  0  0  0  0  0  0
    7.3231    8.7226   23.8232 C   0  0  0  0  0  0  0  0  0  0  0  0
    9.6999    5.9950   20.1899 C   0  0  0  0  0  0  0  0  0  0  0  0
   12.2792    9.5960   17.7323 C   0  0  0  0  0  0  0  0  0  0  0  0
    5.5618    6.7758   19.3053 C   0  0  0  0  0  0  0  0  0  0  0  0
    5.3462    5.8138   18.9596 C   0  0  0  0  0  0  0  0  0  0  0  0
   11.8483    8.8557   18.8575 C   0  0  0  0  0  0  0  0  0  0  0  0
    9.4134   10.0991   23.8827 C   0  0  0  0  0  0  0  0  0  0  0  0
    7.1087    6.5962   20.6282 C   0  0  0  0  0  0  0  0  0  0  0  0
   11.6344    6.9965   20.5885 C   0  0  0  0  0  0  0  0  0  0  0  0
    6.3401    7.8171   20.0050 C   0  0  0  0  0  0  0  0  0  0  0  0
    8.5197    7.6407   22.6421 C   0  0  0  0  0  0  0  0  0  0  0  0
   11.1091    8.2004   18.7928 C   0  0  0  0  0  0  0  0  0  0  0  0
    6.6781    7.3898   23.5062 C   0  0  0  0  0  0  0  0  0  0  0  0
   10.8382    6.5453   21.8572 O   0  0  0  0  0  0  0  0  0  0  0  0
   12.4609    9.3530   20.7645 C   0  0  0  0  0  0  0  0  0  0  0  0
    6.7567   10.4738   24.7292 C   0  0  0  0  0  0  0  0  0  0  0  0
   10.2129    6.6418   20.4481 C   0  0  0  0  0  0  0  0  0  0  0  0
  2 15  4  0
  2 21  4  0
  3 20  1  0
  4 12  4  0
  6 27  4  0
  7 26  4  0
  8 19  4  0
  9 13  1  0
 10 27  4  0
 11 22  4  0
 13 28  1  0
 15 16  4  0
 17 23  1  0
 19 21  4  0
 20 28  1  0
M  END
$$$$

 Created by Python create_sdf_string function

 28 60  0  0  0  0  0  0  0  0999 V2000
   12.0532    9.1239   19.6106 C   0  0  0  0  0  0  0  0  0  0  0  0
    5.1120    8.1354   17.9464 Cl  0  0  0  0  0  0  0  0  0  0  0  0
   12.4929    7.0845   21.3579 C   0  0  0  0  0  0  0  0  0  0  0  0
   14.7509    9.4068   20.1651 C   0  0  0  0  0  0  0  0  0  0  0  0
    6.3980   10.7795   25.2732 F   0  0  0  0  0  0  0  0  0  0  0  0
   13.0718   10.7943   20.0735 C   0  0  0  0  0  0  0  0  0  0  0  0
    7.4802    5.3798   21.7400 C   0  0  0  0  0  0  0  0  0  0  0  0
    8.4059    6.9359   18.8110 O   0  0  0  0  0  0  0  0  0  0  0  0
    7.2592    7.1891   21.7094 C   0  0  0  0  0  0  0  0  0  0  0  0
   11.3881   10.6137   18.0109 C   0  0  0  0  0  0  0  0  0  0  0  0
    4.6851    7.3521   17.8031 Cl  0  0  0  0  0  0  0  0  0  0  0  0
    4.0133    6.6433   19.8981 Cl  0  0  0  0  0  0  0  0  0  0  0  0
   11.3619    9.2000   17.7753 O   0  0  0  0  0  0  0  0  0  0  0  0
    5.4590    7.4488   22.1241 O   0  0  0  0  0  0  0  0  0  0  0  0
    8.6106    6.6299   22.7357 S   0  0  0  0  0  0  0  0  0  0  0  0
    8.7825    5.3603   23.9650 Cl  0  0  0  0  0  0  0  0  0  0  0  0
   10.2525    6.5841   22.6034 P   0  0  0  0  0  0  0  0  0  0  0  0
   14.0750    8.6390   20.1145 C   0  0  0  0  0  0  0  0  0  0  0  0
    9.9615    5.6790   20.6896 N   0  0  0  0  0  0  0  0  0  0  0  0
    9.1222    8.7371   22.3173 He  0  0  0  0  0  0  0  0  0  0  0  0
    6.7948    9.6538   25.5960 He  0  0  0  0  0  0  0  0  0  0  0  0
    5.7263    9.0034   23.8509 He  0  0  0  0  0  0  0  0  0  0  0  0
    8.6525    6.8716   21.2786 He  0  0  0  0  0  0  0  0  0  0  0  0
    8.8549   10.2588   23.7885 He  0  0  0  0  0  0  0  0  0  0  0  0
   11.6772    6.7638   20.0719 He  0  0  0  0  0  0  0  0  0  0  0  0
    7.1357    7.8825   20.7751 He  0  0  0  0  0  0  0  0  0  0  0  0
   10.1128    8.2162   17.8344 He  0  0  0  0  0  0  0  0  0  0  0  0
    6.6345   10.1192   22.6756 He  0  0  0  0  0  0  0  0  0  0  0  0
  1  3  4  0
  1  7  1  0
  1  9  3  0
  1 12  3  0
  1 13  1  0
  2  3  4  0
  2  5  1  0
  2 10  2  0
  2 13  1  0
  2 15  1  0
  3  7  2  0
  3 12  1  0
  3 16  3  0
  3 17  3  0
  3 18  3  0
  3 19  3  0
  4  8  1  0
  4 11  2  0
  4 15  2  0
  4 18  4  0
  4 19  3  0
  5  7  2  0
  5 13  1  0
  5 16  3  0
  5 19  4  0
  6  7  3  0
  6  8  2  0
  6 12  3  0
  6 15  2  0
  6 16  3  0
  6 19  1  0
  7  8  1  0
  7  9  4  0
  7 11  4  0
  7 12  4  0
  7 14  1  0
  7 15  4  0
  7 18  4  0
  7 19  3  0
  8 10  4  0
  8 11  1  0
  8 16  3  0
  8 17  2  0
  9 12  1  0
  9 13  4  0
 10 14  1  0
 10 15  1  0
 10 17  1  0
 10 19  1  0
 11 14  1  0
 11 17  4  0
 11 18  2  0
 12 16  3  0
 12 17  2  0
 15 17  3  0
 15 19  1  0
 16 17  3  0
 16 18  2  0
 16 19  2  0
 18 19  4  0
M  END
$$$$

 Created by Python create_sdf_string function

 28  4  0  0  0  0  0  0  0  0999 V2000
   11.9197    8.6420   19.4803 C   0  0  0  0  0  0  0  0  0  0  0  0
    5.4447    7.6504   18.7343 O   0  0  0  0  0  0  0  0  0  0  0  0
   12.3573    7.5608   20.8316 C   0  0  0  0  0  0  0  0  0  0  0  0
    8.4223    8.5230   22.6133 C   0  0  0  0  0  0  0  0  0  0  0  0
   13.9158    9.0931   20.2196 C   0  0  0  0  0  0  0  0  0  0  0  0
    6.6016   10.3553   24.8735 O   0  0  0  0  0  0  0  0  0  0  0  0
   12.9322   10.1760   19.3872 C   0  0  0  0  0  0  0  0  0  0  0  0
    7.6596    6.3095   21.6952 C   0  0  0  0  0  0  0  0  0  0  0  0
    7.9739    7.1119   19.2334 O   0  0  0  0  0  0  0  0  0  0  0  0
    6.8239    9.8664   24.8037 P   0  0  0  0  0  0  0  0  0  0  0  0
    7.1078    7.3407   21.4534 C   0  0  0  0  0  0  0  0  0  0  0  0
    6.1824    9.0126   23.9383 C   0  0  0  0  0  0  0  0  0  0  0  0
    8.3953    7.0534   20.8722 C   0  0  0  0  0  0  0  0  0  0  0  0
   11.6878   10.2273   18.4093 C   0  0  0  0  0  0  0  0  0  0  0  0
    5.3710    7.1698   18.9453 C   0  0  0  0  0  0  0  0  0  0  0  0
    4.5882    6.9434   19.7137 O   0  0  0  0  0  0  0  0  0  0  0  0
   11.1668    9.2349   18.3749 C   0  0  0  0  0  0  0  0  0  0  0  0
    8.1509    9.9657   24.0068 O   0  0  0  0  0  0  0  0  0  0  0  0
    5.6289    7.7181   21.9083 C   0  0  0  0  0  0  0  0  0  0  0  0
   11.4128    7.2313   20.0036 C   0  0  0  0  0  0  0  0  0  0  0  0
    6.7254    7.6778   20.7570 C   0  0  0  0  0  0  0  0  0  0  0  0
    8.8136    6.5024   22.5844 C   0  0  0  0  0  0  0  0  0  0  0  0
   10.4130    8.2259   18.5196 C   0  0  0  0  0  0  0  0  0  0  0  0
    8.8903    5.7783   23.4448 C   0  0  0  0  0  0  0  0  0  0  0  0
   10.1812    6.3920   22.3825 C   0  0  0  0  0  0  0  0  0  0  0  0
   13.6283    8.7341   20.3229 C   0  0  0  0  0  0  0  0  0  0  0  0
    6.8194    9.7897   23.0289 O   0  0  0  0  0  0  0  0  0  0  0  0
   10.1004    6.3836   20.9459 C   0  0  0  0  0  0  0  0  0  0  0  0
  2 15  1  0
  5 26  4  0
  6 10  1  0
 15 16  1  0
M  END
$$$$

 Created by Python create_sdf_string function

 28 40  0  0  0  0  0  0  0  0999 V2000
   11.8797    9.0452   20.2024 F   0  0  0  0  0  0  0  0  0  0  0  0
   11.1878    6.9061   20.2378 O   0  0  0  0  0  0  0  0  0  0  0  0
    8.6358    8.1572   21.5511 O   0  0  0  0  0  0  0  0  0  0  0  0
    5.8852   10.2176   26.0378 O   0  0  0  0  0  0  0  0  0  0  0  0
   11.8602    9.8688   20.0688 C   0  0  0  0  0  0  0  0  0  0  0  0
    7.7230    7.0757   19.2233 F   0  0  0  0  0  0  0  0  0  0  0  0
    6.0402   10.5700   24.3693 Cl  0  0  0  0  0  0  0  0  0  0  0  0
    8.3363    7.8236   20.6827 F   0  0  0  0  0  0  0  0  0  0  0  0
    6.9282    8.6784   24.5595 F   0  0  0  0  0  0  0  0  0  0  0  0
    4.6796    7.0743   20.0119 O   0  0  0  0  0  0  0  0  0  0  0  0
    8.2780    9.2237   22.8422 N   0  0  0  0  0  0  0  0  0  0  0  0
    4.1594    7.8415   21.4539 I   0  0  0  0  0  0  0  0  0  0  0  0
   12.6995    8.3487   19.6810 N   0  0  0  0  0  0  0  0  0  0  0  0
    6.2868   11.0436   23.6910 S   0  0  0  0  0  0  0  0  0  0  0  0
   10.2694    7.2122   23.1233 C   0  0  0  0  0  0  0  0  0  0  0  0
    5.8351    7.9227   18.9278 He  0  0  0  0  0  0  0  0  0  0  0  0
   13.5537    9.1614   18.9198 He  0  0  0  0  0  0  0  0  0  0  0  0
    7.8145    7.3725   21.3464 He  0  0  0  0  0  0  0  0  0  0  0  0
    9.3559    7.0222   21.0645 He  0  0  0  0  0  0  0  0  0  0  0  0
   11.3382    9.6065   17.5842 He  0  0  0  0  0  0  0  0  0  0  0  0
    3.9405    7.4031   18.0048 He  0  0  0  0  0  0  0  0  0  0  0  0
    9.3800    9.5581   17.8642 He  0  0  0  0  0  0  0  0  0  0  0  0
   12.7559    5.6949   19.5712 He  0  0  0  0  0  0  0  0  0  0  0  0
    6.1039    7.7247   21.1158 He  0  0  0  0  0  0  0  0  0  0  0  0
    8.6660    6.8667   22.0428 He  0  0  0  0  0  0  0  0  0  0  0  0
   11.2670    8.7317   19.3007 He  0  0  0  0  0  0  0  0  0  0  0  0
    9.0803    5.9139   24.2997 He  0  0  0  0  0  0  0  0  0  0  0  0
   11.8699    5.6965   21.8876 He  0  0  0  0  0  0  0  0  0  0  0  0
  1  4  2  0
  1 13  4  0
  1 14  3  0
  1 15  1  0
  2  4  2  0
  2  6  4  0
  2  7  1  0
  2  8  2  0
  2 15  3  0
  3  4  3  0
  3  5  3  0
  3  8  2  0
  3 11  4  0
  3 12  2  0
  3 13  3  0
  3 14  3  0
  3 15  3  0
  4  5  4  0
  4  6  1  0
  4  7  3  0
  4  9  1  0
  4 14  2  0
  5  8  4  0
  5 11  1  0
  5 13  3  0
  6  8  2  0
  6 10  1  0
  6 11  3  0
  7 11  4  0
  8  9  4  0
  8 11  4  0
  8 13  3  0
 10 11  1  0
 10 14  2  0
 11 13  1  0
 11 14  3  0
 11 15  1  0
 12 13  1  0
 13 15  2  0
 14 15  3  0
M  END
$$$$

 Created by Python create_sdf_string function

 28  8  0  0  0  0  0  0  0  0999 V2000
   11.9096    8.5190   19.8449 C   0  0  0  0  0  0  0  0  0  0  0  0
    5.6173    7.7620   18.9986 O   0  0  0  0  0  0  0  0  0  0  0  0
   11.4127    6.7415   20.5251 C   0  0  0  0  0  0  0  0  0  0  0  0
    8.4155    8.2372   21.9522 C   0  0  0  0  0  0  0  0  0  0  0  0
   13.1925    9.1829   18.9145 C   0  0  0  0  0  0  0  0  0  0  0  0
    6.2581    9.8388   25.2175 O   0  0  0  0  0  0  0  0  0  0  0  0
   11.9493    9.5945   19.3089 C   0  0  0  0  0  0  0  0  0  0  0  0
    7.6270    7.5778   21.3622 C   0  0  0  0  0  0  0  0  0  0  0  0
    7.0036    7.3511   19.2722 O   0  0  0  0  0  0  0  0  0  0  0  0
    6.2806   10.2529   24.2093 O   0  0  0  0  0  0  0  0  0  0  0  0
    8.4443    7.8152   20.6254 C   0  0  0  0  0  0  0  0  0  0  0  0
    7.0109    8.8450   24.2889 O   0  0  0  0  0  0  0  0  0  0  0  0
    9.6733    7.1288   21.1877 C   0  0  0  0  0  0  0  0  0  0  0  0
   11.0831    9.6770   18.1136 C   0  0  0  0  0  0  0  0  0  0  0  0
    4.2577    7.2384   18.8793 O   0  0  0  0  0  0  0  0  0  0  0  0
    4.8002    7.3436   19.6338 P   0  0  0  0  0  0  0  0  0  0  0  0
    9.9342    9.3582   18.3203 C   0  0  0  0  0  0  0  0  0  0  0  0
    7.6645    9.0065   23.1761 O   0  0  0  0  0  0  0  0  0  0  0  0
    4.4790    7.8313   20.8742 O   0  0  0  0  0  0  0  0  0  0  0  0
   12.4576    6.3710   20.0588 C   0  0  0  0  0  0  0  0  0  0  0  0
    6.1740    7.7689   20.9543 O   0  0  0  0  0  0  0  0  0  0  0  0
    8.7811    7.1831   22.4071 C   0  0  0  0  0  0  0  0  0  0  0  0
   11.2337    8.8315   19.1482 C   0  0  0  0  0  0  0  0  0  0  0  0
    9.1909    6.5443   24.0399 O   0  0  0  0  0  0  0  0  0  0  0  0
   11.5644    6.0267   21.5081 O   0  0  0  0  0  0  0  0  0  0  0  0
   12.5989    8.0731   19.6539 N   0  0  0  0  0  0  0  0  0  0  0  0
    6.4050   10.5914   23.8014 O   0  0  0  0  0  0  0  0  0  0  0  0
    9.5411    6.9720   23.0504 C   0  0  0  0  0  0  0  0  0  0  0  0
  1 26  4  0
  2 16  1  0
  6 10  1  0
 10 27  1  0
 14 17  4  0
 15 16  1  0
 22 28  1  0
 24 28  1  0
M  END
$$$$

 Created by Python create_sdf_string function

 28 80  0  0  0  0  0  0  0  0999 V2000
   12.4436    8.9932   20.1660 P   0  0  0  0  0  0  0  0  0  0  0  0
   11.6800    7.8521   20.3560 S   0  0  0  0  0  0  0  0  0  0  0  0
    8.9319    6.9773   22.1800 F   0  0  0  0  0  0  0  0  0  0  0  0
   13.5069    8.5508   18.9653 P   0  0  0  0  0  0  0  0  0  0  0  0
    5.5669   10.3697   23.6541 O   0  0  0  0  0  0  0  0  0  0  0  0
   11.3518   10.1983   19.6506 C   0  0  0  0  0  0  0  0  0  0  0  0
    7.6090    8.0814   21.9912 Br  0  0  0  0  0  0  0  0  0  0  0  0
    8.0791    7.7197   18.0817 O   0  0  0  0  0  0  0  0  0  0  0  0
    6.1051   10.0026   23.2528 B   0  0  0  0  0  0  0  0  0  0  0  0
    4.5879    9.4294   24.7216 Cl  0  0  0  0  0  0  0  0  0  0  0  0
   11.6823    9.4277   18.8940 F   0  0  0  0  0  0  0  0  0  0  0  0
    4.1113    7.6623   16.8061 F   0  0  0  0  0  0  0  0  0  0  0  0
    4.9817    8.7739   19.8447 C   0  0  0  0  0  0  0  0  0  0  0  0
   11.5206    9.8314   17.8419 C   0  0  0  0  0  0  0  0  0  0  0  0
    6.9042    9.4148   21.7165 O   0  0  0  0  0  0  0  0  0  0  0  0
    4.0970    7.1930   20.1162 C   0  0  0  0  0  0  0  0  0  0  0  0
    6.4308    8.4758   21.2439 O   0  0  0  0  0  0  0  0  0  0  0  0
    9.6521    6.4082   22.3886 C   0  0  0  0  0  0  0  0  0  0  0  0
   10.3120   10.1376   19.0517 S   0  0  0  0  0  0  0  0  0  0  0  0
    6.8841   11.5985   23.9865 C   0  0  0  0  0  0  0  0  0  0  0  0
   10.6874    5.6887   23.2079 C   0  0  0  0  0  0  0  0  0  0  0  0
    6.2242    7.2322   18.8589 He  0  0  0  0  0  0  0  0  0  0  0  0
    8.3561    9.3379   20.3577 He  0  0  0  0  0  0  0  0  0  0  0  0
    8.9280    6.3431   21.9438 He  0  0  0  0  0  0  0  0  0  0  0  0
   12.9320    6.4292   21.0086 He  0  0  0  0  0  0  0  0  0  0  0  0
    8.1874    6.5822   24.0552 He  0  0  0  0  0  0  0  0  0  0  0  0
    9.8834    8.0226   20.7275 He  0  0  0  0  0  0  0  0  0  0  0  0
   12.9095    8.5296   19.3452 He  0  0  0  0  0  0  0  0  0  0  0  0
  1  2  4  0
  1  3  4  0
  1  5  2  0
  1  8  1  0
  1  9  2  0
  1 10  4  0
  1 16  3  0
  1 17  1  0
  1 18  2  0
  1 20  4  0
  2  7  2  0
  2  8  3  0
  2 11  2  0
  2 14  4  0
  2 16  4  0
  2 19  1  0
  3  4  1  0
  3  5  4  0
  3  6  3  0
  3  8  1  0
  3 17  4  0
  3 20  4  0
  4  5  3  0
  4  8  1  0
  4 10  1  0
  4 16  3  0
  4 19  1  0
  4 20  1  0
  5  6  2  0
  5  8  3  0
  5 11  4  0
  5 12  1  0
  5 13  2  0
  5 17  2  0
  5 18  2  0
  5 19  3  0
  5 20  1  0
  6  7  3  0
  6  8  3  0
  6 10  2  0
  6 11  1  0
  6 12  4  0
  6 14  2  0
  6 17  4  0
  6 18  4  0
  6 20  3  0
  6 21  3  0
  7  8  1  0
  7 10  4  0
  7 15  2  0
  7 19  2  0
  7 21  1  0
  8  9  2  0
  8 11  2  0
  8 14  3  0
  8 16  2  0
 10 11  4  0
 10 14  4  0
 10 15  2  0
 10 21  4  0
 11 12  2  0
 11 13  4  0
 11 14  3  0
 11 16  1  0
 11 18  3  0
 11 19  3  0
 12 17  3  0
 12 20  2  0
 13 14  2  0
 14 18  3  0
 14 21  1  0
 15 16  4  0
 15 17  1  0
 15 21  2  0
 16 17  4  0
 16 19  3  0
 17 21  1  0
 18 20  3  0
 18 21  2  0
 19 21  4  0
M  END
$$$$

 Created by Python create_sdf_string function

 28  7  0  0  0  0  0  0  0  0999 V2000
   12.3855    8.3898   19.9637 C   0  0  0  0  0  0  0  0  0  0  0  0
    6.0587    7.5725   18.9934 P   0  0  0  0  0  0  0  0  0  0  0  0
   11.4752    7.8970   20.5266 C   0  0  0  0  0  0  0  0  0  0  0  0
    8.8432    7.1171   22.0796 C   0  0  0  0  0  0  0  0  0  0  0  0
   13.3118    8.6985   18.9732 C   0  0  0  0  0  0  0  0  0  0  0  0
    5.8365   10.1892   23.5309 P   0  0  0  0  0  0  0  0  0  0  0  0
   11.2817    9.6988   19.1744 C   0  0  0  0  0  0  0  0  0  0  0  0
    7.5549    8.1817   21.8039 C   0  0  0  0  0  0  0  0  0  0  0  0
    7.1430    7.8099   18.4934 O   0  0  0  0  0  0  0  0  0  0  0  0
    5.8925    9.9398   23.1353 O   0  0  0  0  0  0  0  0  0  0  0  0
    8.3358    8.7691   20.5381 C   0  0  0  0  0  0  0  0  0  0  0  0
    5.0629    9.6481   24.2839 O   0  0  0  0  0  0  0  0  0  0  0  0
    9.3040    6.6510   21.9719 C   0  0  0  0  0  0  0  0  0  0  0  0
   11.4201    9.6851   18.8817 C   0  0  0  0  0  0  0  0  0  0  0  0
    4.8571    7.4285   18.3205 O   0  0  0  0  0  0  0  0  0  0  0  0
    5.4663    8.3864   19.8500 O   0  0  0  0  0  0  0  0  0  0  0  0
   11.7477    9.9558   18.1856 C   0  0  0  0  0  0  0  0  0  0  0  0
    6.6298    9.2271   21.9396 O   0  0  0  0  0  0  0  0  0  0  0  0
    4.6585    7.6714   19.8315 O   0  0  0  0  0  0  0  0  0  0  0  0
   12.4256    6.9649   20.9768 O   0  0  0  0  0  0  0  0  0  0  0  0
    6.2966    8.5741   21.3002 C   0  0  0  0  0  0  0  0  0  0  0  0
    9.6192    6.4402   22.6041 C   0  0  0  0  0  0  0  0  0  0  0  0
   10.1184   10.0129   19.0525 C   0  0  0  0  0  0  0  0  0  0  0  0
    8.3702    6.6828   23.4782 O   0  0  0  0  0  0  0  0  0  0  0  0
    9.8801    8.0723   20.8088 C   0  0  0  0  0  0  0  0  0  0  0  0
   12.9428    8.5965   19.3023 C   0  0  0  0  0  0  0  0  0  0  0  0
    6.5142   11.1360   23.8125 O   0  0  0  0  0  0  0  0  0  0  0  0
   10.3629    5.8560   22.9411 O   0  0  0  0  0  0  0  0  0  0  0  0
  1 26  4  0
  2 16  1  0
  5 26  4  0
  6 10  1  0
  6 12  1  0
  6 27  1  0
 18 21  1  0
M  END
$$$$

 Created by Python create_sdf_string function

 28 27  0  0  0  0  0  0  0  0999 V2000
   12.6870    8.6977   20.0721 Br  0  0  0  0  0  0  0  0  0  0  0  0
    5.7508    8.3952   17.6221 Br  0  0  0  0  0  0  0  0  0  0  0  0
   13.2001    7.7623   21.0740 Br  0  0  0  0  0  0  0  0  0  0  0  0
    6.0347    7.6989   21.3520 S   0  0  0  0  0  0  0  0  0  0  0  0
    5.2487    9.9118   22.4065 N   0  0  0  0  0  0  0  0  0  0  0  0
    4.8534    9.4377   25.2077 S   0  0  0  0  0  0  0  0  0  0  0  0
   10.4055    8.8356   18.6510 C   0  0  0  0  0  0  0  0  0  0  0  0
    5.8236    7.9384   20.9226 C   0  0  0  0  0  0  0  0  0  0  0  0
   11.3298    9.3039   17.3222 C   0  0  0  0  0  0  0  0  0  0  0  0
    6.0560    7.3462   20.3893 N   0  0  0  0  0  0  0  0  0  0  0  0
   11.4559    7.4781   19.8962 N   0  0  0  0  0  0  0  0  0  0  0  0
    6.8058    8.9596   21.6291 N   0  0  0  0  0  0  0  0  0  0  0  0
   13.4295    9.8537   19.2431 F   0  0  0  0  0  0  0  0  0  0  0  0
    9.7887    5.7434   23.6061 O   0  0  0  0  0  0  0  0  0  0  0  0
    9.5726    7.5453   21.6930 He  0  0  0  0  0  0  0  0  0  0  0  0
   13.9292    9.2128   19.2733 He  0  0  0  0  0  0  0  0  0  0  0  0
    6.1871   10.0843   23.8790 He  0  0  0  0  0  0  0  0  0  0  0  0
   12.3967   10.1392   18.4057 He  0  0  0  0  0  0  0  0  0  0  0  0
    6.9095    7.5133   19.5745 He  0  0  0  0  0  0  0  0  0  0  0  0
    8.6999    9.2770   20.5260 He  0  0  0  0  0  0  0  0  0  0  0  0
    8.4375    7.6013   21.3958 He  0  0  0  0  0  0  0  0  0  0  0  0
    6.3979    6.1500   18.6367 He  0  0  0  0  0  0  0  0  0  0  0  0
    5.7474    9.3677   23.6280 He  0  0  0  0  0  0  0  0  0  0  0  0
    9.5137    4.3864   22.4509 He  0  0  0  0  0  0  0  0  0  0  0  0
    9.3069   10.0425   19.7366 He  0  0  0  0  0  0  0  0  0  0  0  0
    7.4792    6.4406   24.6551 He  0  0  0  0  0  0  0  0  0  0  0  0
    9.7537    8.0712   20.0440 He  0  0  0  0  0  0  0  0  0  0  0  0
    7.6345   10.1044   23.2538 He  0  0  0  0  0  0  0  0  0  0  0  0
  1  3  3  0
  1  7  3  0
  1 10  2  0
  1 11  4  0
  1 13  4  0
  1 14  2  0
  2  3  3  0
  2  4  3  0
  2 11  3  0
  2 13  2  0
  2 14  3  0
  3  6  4  0
  3 10  4  0
  3 14  1  0
  4  5  2  0
  4  9  4  0
  5  6  4  0
  5 13  1  0
  6  7  1  0
  6 11  1  0
  6 14  2  0
  7 11  1  0
  8 10  1  0
  8 13  4  0
  9 12  3  0
 11 14  4  0
 12 13  1  0
M  END
$$$$

 Created by Python create_sdf_string function

 28 15  0  0  0  0  0  0  0  0999 V2000
   12.5999    8.3722   20.0459 C   0  0  0  0  0  0  0  0  0  0  0  0
    6.3548    8.2145   18.3482 O   0  0  0  0  0  0  0  0  0  0  0  0
   13.0041    7.5966   21.0137 Br  0  0  0  0  0  0  0  0  0  0  0  0
    9.3252    7.1163   22.0038 C   0  0  0  0  0  0  0  0  0  0  0  0
   14.1230    9.5298   19.3047 O   0  0  0  0  0  0  0  0  0  0  0  0
    6.0780    9.8870   23.8074 P   0  0  0  0  0  0  0  0  0  0  0  0
   12.2241    9.9093   18.1861 C   0  0  0  0  0  0  0  0  0  0  0  0
    6.0140    7.7012   21.5615 C   0  0  0  0  0  0  0  0  0  0  0  0
    6.6231    7.5478   19.1297 P   0  0  0  0  0  0  0  0  0  0  0  0
    5.3494    9.6111   22.7975 O   0  0  0  0  0  0  0  0  0  0  0  0
    8.2615    8.7283   20.5504 C   0  0  0  0  0  0  0  0  0  0  0  0
    5.2419    9.4867   24.8825 O   0  0  0  0  0  0  0  0  0  0  0  0
    8.7607    7.3673   21.6342 C   0  0  0  0  0  0  0  0  0  0  0  0
   10.5032    9.0216   19.2542 C   0  0  0  0  0  0  0  0  0  0  0  0
    6.2413    6.4291   18.7094 O   0  0  0  0  0  0  0  0  0  0  0  0
    5.9047    7.7770   20.6230 C   0  0  0  0  0  0  0  0  0  0  0  0
   11.2162    9.7041   18.2150 C   0  0  0  0  0  0  0  0  0  0  0  0
    5.9739    9.1787   23.5521 O   0  0  0  0  0  0  0  0  0  0  0  0
    5.9745    7.5152   20.2286 O   0  0  0  0  0  0  0  0  0  0  0  0
   11.5798    8.0470   20.3213 C   0  0  0  0  0  0  0  0  0  0  0  0
    7.2659    8.7413   21.7681 C   0  0  0  0  0  0  0  0  0  0  0  0
    9.2735    5.3060   22.7960 O   0  0  0  0  0  0  0  0  0  0  0  0
    9.4524    9.7153   19.2842 C   0  0  0  0  0  0  0  0  0  0  0  0
    7.7645    6.5487   23.8567 O   0  0  0  0  0  0  0  0  0  0  0  0
    9.5224    8.4895   20.0827 C   0  0  0  0  0  0  0  0  0  0  0  0
   13.1304    9.3400   19.1615 C   0  0  0  0  0  0  0  0  0  0  0  0
    7.2835   10.0654   23.3726 O   0  0  0  0  0  0  0  0  0  0  0  0
    9.5707    5.8765   23.1970 O   0  0  0  0  0  0  0  0  0  0  0  0
  1  3  4  0
  1 20  4  0
  1 26  4  0
  2  9  1  0
  4 13  1  0
  5 26  1  0
  6 10  1  0
  7 17  4  0
  7 26  4  0
  9 15  2  0
 11 21  1  0
 14 17  4  0
 14 25  4  0
 16 19  1  0
 22 28  1  0
M  END
$$$$

 Created by Python create_sdf_string function

 28 54  0  0  0  0  0  0  0  0999 V2000
   12.8017    9.4426   20.9175 C   0  0  0  0  0  0  0  0  0  0  0  0
    5.8030    8.1747   19.3876 O   0  0  0  0  0  0  0  0  0  0  0  0
    6.1560   11.0493   23.1757 P   0  0  0  0  0  0  0  0  0  0  0  0
    3.8635   10.6187   20.6250 C   0  0  0  0  0  0  0  0  0  0  0  0
    5.5916    6.8138   18.8750 C   0  0  0  0  0  0  0  0  0  0  0  0
    7.8844    8.4482   21.8809 F   0  0  0  0  0  0  0  0  0  0  0  0
    4.6563    9.8075   23.4619 O   0  0  0  0  0  0  0  0  0  0  0  0
    9.3023    7.8054   22.0688 F   0  0  0  0  0  0  0  0  0  0  0  0
    6.3062    6.2145   18.7768 P   0  0  0  0  0  0  0  0  0  0  0  0
    6.6839    6.6217   19.8472 C   0  0  0  0  0  0  0  0  0  0  0  0
   11.1102    9.3359   18.9969 C   0  0  0  0  0  0  0  0  0  0  0  0
    7.1468   11.5568   24.4036 O   0  0  0  0  0  0  0  0  0  0  0  0
    5.5019    7.6483   20.1748 N   0  0  0  0  0  0  0  0  0  0  0  0
    8.4615    7.8767   21.6840 C   0  0  0  0  0  0  0  0  0  0  0  0
    9.8640    5.3985   23.1533 N   0  0  0  0  0  0  0  0  0  0  0  0
    9.6123   10.3539   18.8902 O   0  0  0  0  0  0  0  0  0  0  0  0
    9.2124    9.8201   20.0787 F   0  0  0  0  0  0  0  0  0  0  0  0
    8.3870    5.7673   22.7861 C   0  0  0  0  0  0  0  0  0  0  0  0
   12.2487    8.3522   20.4639 He  0  0  0  0  0  0  0  0  0  0  0  0
   10.4707    5.1814   22.1490 He  0  0  0  0  0  0  0  0  0  0  0  0
   14.4779    8.8155   20.9499 He  0  0  0  0  0  0  0  0  0  0  0  0
   14.4787    9.1768   18.0088 He  0  0  0  0  0  0  0  0  0  0  0  0
    5.9308   10.1287   22.1431 He  0  0  0  0  0  0  0  0  0  0  0  0
   10.6501   11.4359   18.6245 He  0  0  0  0  0  0  0  0  0  0  0  0
   12.2180    9.7822   21.7904 He  0  0  0  0  0  0  0  0  0  0  0  0
    7.1053    7.7121   23.4570 He  0  0  0  0  0  0  0  0  0  0  0  0
   12.5353    9.1490   18.7831 He  0  0  0  0  0  0  0  0  0  0  0  0
    5.7966    7.9959   23.0330 He  0  0  0  0  0  0  0  0  0  0  0  0
  1  4  4  0
  1 13  3  0
  1 16  4  0
  2  4  3  0
  2  5  1  0
  2  6  3  0
  2  7  1  0
  2 10  1  0
  2 12  1  0
  2 16  3  0
  2 17  4  0
  3  4  1  0
  3  6  1  0
  3  7  2  0
  3  8  4  0
  3  9  3  0
  3 12  4  0
  3 16  2  0
  3 18  1  0
  4  6  4  0
  4  9  2  0
  4 11  4  0
  5  7  3  0
  5  9  2  0
  5 12  3  0
  5 15  3  0
  5 18  4  0
  6  7  1  0
  6  8  1  0
  6  9  4  0
  6 10  2  0
  6 12  4  0
  6 14  3  0
  6 16  3  0
  7 10  4  0
  7 13  1  0
  7 15  3  0
  7 16  3  0
  7 17  3  0
  8 14  4  0
  8 16  4  0
  9 12  4  0
 10 13  3  0
 10 17  2  0
 11 14  4  0
 11 16  1  0
 11 17  2  0
 11 18  1  0
 12 16  3  0
 12 18  1  0
 13 17  1  0
 13 18  3  0
 15 18  1  0
 16 17  2  0
M  END
$$$$

 Created by Python create_sdf_string function

 28 17  0  0  0  0  0  0  0  0999 V2000
   12.3899    9.1738   20.5565 C   0  0  0  0  0  0  0  0  0  0  0  0
    5.6578    8.0501   19.2242 O   0  0  0  0  0  0  0  0  0  0  0  0
   12.4547    8.6686   20.7020 C   0  0  0  0  0  0  0  0  0  0  0  0
   10.2161    5.8707   22.3198 C   0  0  0  0  0  0  0  0  0  0  0  0
   14.1883    8.8030   20.4396 C   0  0  0  0  0  0  0  0  0  0  0  0
    5.7205   10.4502   22.9551 P   0  0  0  0  0  0  0  0  0  0  0  0
   13.7842    9.2327   18.5976 C   0  0  0  0  0  0  0  0  0  0  0  0
    4.7154    9.9898   21.2013 O   0  0  0  0  0  0  0  0  0  0  0  0
    5.4579    7.0765   19.0249 C   0  0  0  0  0  0  0  0  0  0  0  0
    6.2651    9.6598   22.1115 O   0  0  0  0  0  0  0  0  0  0  0  0
    8.3681    8.4247   21.4630 C   0  0  0  0  0  0  0  0  0  0  0  0
    4.7662   10.1240   23.3783 O   0  0  0  0  0  0  0  0  0  0  0  0
    9.2371    7.7378   21.9789 C   0  0  0  0  0  0  0  0  0  0  0  0
   10.7548   10.9290   18.6858 O   0  0  0  0  0  0  0  0  0  0  0  0
    6.0811    6.3300   18.6455 O   0  0  0  0  0  0  0  0  0  0  0  0
    6.6889    7.2254   20.1723 C   0  0  0  0  0  0  0  0  0  0  0  0
   11.2830    9.8049   19.2862 C   0  0  0  0  0  0  0  0  0  0  0  0
    6.6031   11.1113   23.6661 O   0  0  0  0  0  0  0  0  0  0  0  0
    5.6353    7.6251   20.4979 N   0  0  0  0  0  0  0  0  0  0  0  0
   11.8642    9.3799   21.2427 C   0  0  0  0  0  0  0  0  0  0  0  0
    8.4979    7.6534   22.0924 C   0  0  0  0  0  0  0  0  0  0  0  0
    9.3973    5.7767   22.8981 C   0  0  0  0  0  0  0  0  0  0  0  0
    9.6279    9.8081   19.4151 O   0  0  0  0  0  0  0  0  0  0  0  0
    7.3067    7.4236   22.9742 C   0  0  0  0  0  0  0  0  0  0  0  0
    9.6983    9.6656   20.1024 C   0  0  0  0  0  0  0  0  0  0  0  0
   12.7594    9.4582   19.0453 C   0  0  0  0  0  0  0  0  0  0  0  0
    6.1013    8.1404   22.7121 C   0  0  0  0  0  0  0  0  0  0  0  0
    8.5058    5.9561   22.9374 C   0  0  0  0  0  0  0  0  0  0  0  0
  1  3  1  0
  1 20  1  0
  2  9  1  0
  4 22  1  0
  6  8  1  0
  6 10  1  0
  6 12  2  0
  6 18  1  0
  7 26  1  0
  9 15  2  0
 11 13  1  0
 11 21  1  0
 13 21  4  0
 17 26  1  0
 22 28  1  0
 23 25  2  0
 24 27  1  0
M  END
$$$$

 Created by Python create_sdf_string function

 28 42  0  0  0  0  0  0  0  0999 V2000
    4.5348    8.0084   20.3300 S   0  0  0  0  0  0  0  0  0  0  0  0
   12.3207    9.5334   20.4353 N   0  0  0  0  0  0  0  0  0  0  0  0
   10.9966    4.9802   21.7092 C   0  0  0  0  0  0  0  0  0  0  0  0
   14.0832    8.9018   21.4625 N   0  0  0  0  0  0  0  0  0  0  0  0
    6.2464   10.6590   23.7992 Cl  0  0  0  0  0  0  0  0  0  0  0  0
    4.7937   10.1366   22.0722 O   0  0  0  0  0  0  0  0  0  0  0  0
    6.7759   10.6922   22.0320 S   0  0  0  0  0  0  0  0  0  0  0  0
   10.4377   12.1354   18.6536 O   0  0  0  0  0  0  0  0  0  0  0  0
    7.5216    6.3611   18.9508 O   0  0  0  0  0  0  0  0  0  0  0  0
    6.9729    6.7799   20.1982 N   0  0  0  0  0  0  0  0  0  0  0  0
    5.5659   10.4503   22.4898 O   0  0  0  0  0  0  0  0  0  0  0  0
    4.1981    7.8016   20.3618 Cl  0  0  0  0  0  0  0  0  0  0  0  0
   11.7222    8.4886   21.2903 C   0  0  0  0  0  0  0  0  0  0  0  0
    8.5382    5.3823   22.3393 C   0  0  0  0  0  0  0  0  0  0  0  0
    6.3927    6.7480   22.0321 I   0  0  0  0  0  0  0  0  0  0  0  0
    9.2185   11.3570   21.8785 C   0  0  0  0  0  0  0  0  0  0  0  0
   10.5557    8.6848   19.0638 Se  0  0  0  0  0  0  0  0  0  0  0  0
    9.4778    5.7254   23.7570 C   0  0  0  0  0  0  0  0  0  0  0  0
   13.6379    9.3924   20.8703 He  0  0  0  0  0  0  0  0  0  0  0  0
   14.0270   12.1051   17.6861 He  0  0  0  0  0  0  0  0  0  0  0  0
    6.3635    6.9554   18.7782 He  0  0  0  0  0  0  0  0  0  0  0  0
    7.7268    8.0835   21.4470 He  0  0  0  0  0  0  0  0  0  0  0  0
    6.0618    9.8802   22.2396 He  0  0  0  0  0  0  0  0  0  0  0  0
    9.5320    7.5619   22.5929 He  0  0  0  0  0  0  0  0  0  0  0  0
   12.4856    8.0280   18.2717 He  0  0  0  0  0  0  0  0  0  0  0  0
    8.3567    6.9206   22.6929 He  0  0  0  0  0  0  0  0  0  0  0  0
    9.8287    9.8620   19.5218 He  0  0  0  0  0  0  0  0  0  0  0  0
    6.2553    7.3905   23.2729 He  0  0  0  0  0  0  0  0  0  0  0  0
  1  2  1  0
  1  7  3  0
  1 10  3  0
  1 13  4  0
  2  7  3  0
  2  9  4  0
  2 10  4  0
  2 11  4  0
  2 14  2  0
  2 16  2  0
  3  4  1  0
  3  5  4  0
  3  8  1  0
  3 15  3  0
  3 17  4  0
  4 10  2  0
  4 11  2  0
  4 12  1  0
  4 18  2  0
  5  9  1  0
  5 11  1  0
  5 12  1  0
  5 13  4  0
  5 14  4  0
  5 18  2  0
  6 12  4  0
  6 15  1  0
  7 13  1  0
  8 11  3  0
  8 16  4  0
  8 17  2  0
  9 10  1  0
 10 12  2  0
 10 16  1  0
 11 14  3  0
 11 16  2  0
 12 13  1  0
 12 16  4  0
 12 17  2  0
 14 16  1  0
 14 18  1  0
 16 17  2  0
M  END
$$$$

 Created by Python create_sdf_string function

 28 10  0  0  0  0  0  0  0  0999 V2000
   13.3170    9.2943   20.4487 P   0  0  0  0  0  0  0  0  0  0  0  0
    5.0527    7.6634   20.0300 C   0  0  0  0  0  0  0  0  0  0  0  0
   12.0898    9.4735   20.3283 N   0  0  0  0  0  0  0  0  0  0  0  0
   10.5116    5.6768   22.0638 O   0  0  0  0  0  0  0  0  0  0  0  0
   13.8069    9.0258   20.9722 O   0  0  0  0  0  0  0  0  0  0  0  0
    6.0442   10.6596   23.3398 O   0  0  0  0  0  0  0  0  0  0  0  0
   13.3499   10.7639   18.7473 O   0  0  0  0  0  0  0  0  0  0  0  0
    4.7162   10.1261   22.1027 O   0  0  0  0  0  0  0  0  0  0  0  0
    5.7967    7.1669   18.8453 O   0  0  0  0  0  0  0  0  0  0  0  0
    6.5976   10.6331   22.2594 O   0  0  0  0  0  0  0  0  0  0  0  0
    8.1196    7.7933   21.7027 C   0  0  0  0  0  0  0  0  0  0  0  0
    6.2240    9.4594   22.3209 O   0  0  0  0  0  0  0  0  0  0  0  0
    9.6983    7.5503   22.0418 C   0  0  0  0  0  0  0  0  0  0  0  0
   10.4465   11.2343   18.9051 O   0  0  0  0  0  0  0  0  0  0  0  0
    7.5204    6.6408   19.5740 O   0  0  0  0  0  0  0  0  0  0  0  0
    6.8707    7.0248   20.2615 C   0  0  0  0  0  0  0  0  0  0  0  0
   12.5536    8.6767   18.9599 O   0  0  0  0  0  0  0  0  0  0  0  0
    5.6399   10.6701   22.6518 O   0  0  0  0  0  0  0  0  0  0  0  0
    4.4574    7.6903   20.3554 O   0  0  0  0  0  0  0  0  0  0  0  0
   11.6737    8.5045   21.1408 C   0  0  0  0  0  0  0  0  0  0  0  0
    8.4781    6.9864   22.4094 C   0  0  0  0  0  0  0  0  0  0  0  0
    8.9520    5.6918   22.5204 C   0  0  0  0  0  0  0  0  0  0  0  0
   10.0020   10.0693   19.8734 C   0  0  0  0  0  0  0  0  0  0  0  0
    6.4364    7.1699   21.7979 C   0  0  0  0  0  0  0  0  0  0  0  0
    9.1280   10.5416   21.0483 C   0  0  0  0  0  0  0  0  0  0  0  0
   10.6220    9.5067   19.6725 C   0  0  0  0  0  0  0  0  0  0  0  0
    6.4842    7.3392   22.8579 C   0  0  0  0  0  0  0  0  0  0  0  0
    9.4236    5.7841   23.3398 C   0  0  0  0  0  0  0  0  0  0  0  0
  1  5  1  0
  2  9  1  0
  2 19  1  0
  6 18  1  0
 11 21  1  0
 14 23  2  0
 15 16  1  0
 22 28  1  0
 23 25  1  0
 23 26  1  0
M  END
$$$$

 Created by Python create_sdf_string function

 28 49  0  0  0  0  0  0  0  0999 V2000
   14.0792   10.8156   20.2998 P   0  0  0  0  0  0  0  0  0  0  0  0
    5.6894    8.6948   20.4060 C   0  0  0  0  0  0  0  0  0  0  0  0
   13.1521    8.4227   20.1904 O   0  0  0  0  0  0  0  0  0  0  0  0
   13.0130    9.6569   20.2449 C   0  0  0  0  0  0  0  0  0  0  0  0
    4.5065   10.9931   21.5235 I   0  0  0  0  0  0  0  0  0  0  0  0
    4.7763    7.1299   18.4592 O   0  0  0  0  0  0  0  0  0  0  0  0
    9.4704    7.4151   22.6196 C   0  0  0  0  0  0  0  0  0  0  0  0
    7.6009    7.2432   18.3445 C   0  0  0  0  0  0  0  0  0  0  0  0
    5.9579    8.7303   20.8718 Br  0  0  0  0  0  0  0  0  0  0  0  0
    4.4698    8.0437   20.5328 O   0  0  0  0  0  0  0  0  0  0  0  0
   11.2705    8.4561   21.8278 Br  0  0  0  0  0  0  0  0  0  0  0  0
    8.6676    5.4257   22.0913 Cl  0  0  0  0  0  0  0  0  0  0  0  0
    7.9400    5.2251   22.5967 C   0  0  0  0  0  0  0  0  0  0  0  0
   10.6737   11.4299   19.6973 B   0  0  0  0  0  0  0  0  0  0  0  0
    5.4521    7.8567   21.7756 S   0  0  0  0  0  0  0  0  0  0  0  0
    9.4648   11.8979   21.9135 O   0  0  0  0  0  0  0  0  0  0  0  0
    9.0893    6.0545   24.7161 C   0  0  0  0  0  0  0  0  0  0  0  0
    8.5692    5.2163   22.1559 He  0  0  0  0  0  0  0  0  0  0  0  0
    5.8490   10.6458   23.5424 He  0  0  0  0  0  0  0  0  0  0  0  0
   14.0270   11.0357   16.7951 He  0  0  0  0  0  0  0  0  0  0  0  0
    6.3142    9.5786   22.8498 He  0  0  0  0  0  0  0  0  0  0  0  0
    6.5038    7.2428   20.7791 He  0  0  0  0  0  0  0  0  0  0  0  0
    5.8012    8.6208   20.9839 He  0  0  0  0  0  0  0  0  0  0  0  0
   10.2479   10.4145   19.2758 He  0  0  0  0  0  0  0  0  0  0  0  0
   11.3873    9.9466   22.3418 He  0  0  0  0  0  0  0  0  0  0  0  0
    6.5792   11.9518   21.6731 He  0  0  0  0  0  0  0  0  0  0  0  0
   10.0162   10.8907   20.3721 He  0  0  0  0  0  0  0  0  0  0  0  0
    6.2908    6.2722   23.8321 He  0  0  0  0  0  0  0  0  0  0  0  0
  1  7  3  0
  1  9  3  0
  1 11  1  0
  1 12  1  0
  1 14  4  0
  2  3  1  0
  2  7  1  0
  2  8  1  0
  2 11  2  0
  2 13  3  0
  2 15  2  0
  3  4  2  0
  3  6  2  0
  3 11  2  0
  3 13  1  0
  3 16  2  0
  4  7  4  0
  4  8  4  0
  4 10  3  0
  4 12  2  0
  4 17  3  0
  5  7  4  0
  5  9  3  0
  5 17  1  0
  6 10  2  0
  6 12  4  0
  6 13  4  0
  6 14  4  0
  6 17  1  0
  7  9  4  0
  7 10  4  0
  7 12  1  0
  7 15  3  0
  7 17  3  0
  8 10  1  0
  8 12  4  0
  8 13  4  0
  8 15  3  0
  8 16  3  0
  8 17  3  0
  9 12  3  0
  9 15  3  0
  9 16  4  0
 10 11  2  0
 10 15  4  0
 11 15  1  0
 13 17  1  0
 15 16  2  0
 16 17  4  0
M  END
$$$$

 Created by Python create_sdf_string function

 28 13  0  0  0  0  0  0  0  0999 V2000
   13.4116   10.4778   19.8054 C   0  0  0  0  0  0  0  0  0  0  0  0
    5.9132    8.5283   20.1550 C   0  0  0  0  0  0  0  0  0  0  0  0
   13.0448    9.0427   20.1930 O   0  0  0  0  0  0  0  0  0  0  0  0
    8.6833    5.7862   22.1137 C   0  0  0  0  0  0  0  0  0  0  0  0
   12.8248    9.9465   19.9339 C   0  0  0  0  0  0  0  0  0  0  0  0
    5.7683   10.6703   22.8945 C   0  0  0  0  0  0  0  0  0  0  0  0
   13.3441   10.6573   18.3420 O   0  0  0  0  0  0  0  0  0  0  0  0
    5.0493   10.9129   21.7676 C   0  0  0  0  0  0  0  0  0  0  0  0
    5.1328    7.2473   18.8926 O   0  0  0  0  0  0  0  0  0  0  0  0
    6.4278    9.6724   22.6315 O   0  0  0  0  0  0  0  0  0  0  0  0
    6.5896    7.1736   21.0374 C   0  0  0  0  0  0  0  0  0  0  0  0
    6.0221    8.6076   20.8523 C   0  0  0  0  0  0  0  0  0  0  0  0
    9.3845    7.2776   22.2138 C   0  0  0  0  0  0  0  0  0  0  0  0
   10.2986   10.4453   19.8454 C   0  0  0  0  0  0  0  0  0  0  0  0
    6.9392    7.6357   18.9679 O   0  0  0  0  0  0  0  0  0  0  0  0
    6.5080    8.9227   21.0007 C   0  0  0  0  0  0  0  0  0  0  0  0
   10.9118    9.7783   21.6379 O   0  0  0  0  0  0  0  0  0  0  0  0
    6.5268   11.2634   21.8541 C   0  0  0  0  0  0  0  0  0  0  0  0
    4.6256    7.9593   20.1835 O   0  0  0  0  0  0  0  0  0  0  0  0
   10.8613    8.4046   21.6043 C   0  0  0  0  0  0  0  0  0  0  0  0
    8.9014    6.1156   22.1165 C   0  0  0  0  0  0  0  0  0  0  0  0
    7.7852    5.9252   22.9687 C   0  0  0  0  0  0  0  0  0  0  0  0
   11.0189   10.8606   19.9806 C   0  0  0  0  0  0  0  0  0  0  0  0
    5.9722    7.6584   21.5871 C   0  0  0  0  0  0  0  0  0  0  0  0
    9.3258   11.3619   21.5138 O   0  0  0  0  0  0  0  0  0  0  0  0
    9.8956   10.6604   20.8752 C   0  0  0  0  0  0  0  0  0  0  0  0
    6.7804    6.2472   23.3661 C   0  0  0  0  0  0  0  0  0  0  0  0
    8.8634    5.9133   23.8094 C   0  0  0  0  0  0  0  0  0  0  0  0
  1  5  1  0
  2 15  1  0
  3  5  1  0
  4 21  1  0
  6  8  1  0
  8 18  1  0
 11 24  1  0
 13 21  1  0
 14 23  4  0
 14 26  1  0
 22 27  1  0
 22 28  1  0
 25 26  2  0
M  END
$$$$

 Created by Python create_sdf_string function

 28 63  0  0  0  0  0  0  0  0999 V2000
    5.4564    8.9056   20.8527 C   0  0  0  0  0  0  0  0  0  0  0  0
   13.4541    8.1466   19.8849 C   0  0  0  0  0  0  0  0  0  0  0  0
    8.2528    6.0165   22.3229 P   0  0  0  0  0  0  0  0  0  0  0  0
   13.8771   10.8369   18.3299 O   0  0  0  0  0  0  0  0  0  0  0  0
    5.8023   11.6934   24.6807 Br  0  0  0  0  0  0  0  0  0  0  0  0
   14.6607   13.3384   20.1054 O   0  0  0  0  0  0  0  0  0  0  0  0
    5.4116   12.0848   22.0386 C   0  0  0  0  0  0  0  0  0  0  0  0
    5.5272    6.6954   18.9268 F   0  0  0  0  0  0  0  0  0  0  0  0
    6.5873    6.5747   19.5376 C   0  0  0  0  0  0  0  0  0  0  0  0
    8.3201    7.5565   20.8183 C   0  0  0  0  0  0  0  0  0  0  0  0
    8.5464    7.4160   22.1780 O   0  0  0  0  0  0  0  0  0  0  0  0
   10.7551   10.2815   20.6934 F   0  0  0  0  0  0  0  0  0  0  0  0
    6.5482   10.8202   20.4516 F   0  0  0  0  0  0  0  0  0  0  0  0
   11.1939    7.8562   21.6413 O   0  0  0  0  0  0  0  0  0  0  0  0
    7.7790   11.8754   21.8390 N   0  0  0  0  0  0  0  0  0  0  0  0
    5.3096    7.9349   19.6566 O   0  0  0  0  0  0  0  0  0  0  0  0
    8.5492    6.4198   22.4726 C   0  0  0  0  0  0  0  0  0  0  0  0
    8.6557    6.9033   22.2353 C   0  0  0  0  0  0  0  0  0  0  0  0
   10.4414   10.5185   19.4057 C   0  0  0  0  0  0  0  0  0  0  0  0
    6.1437    6.9418   21.2540 C   0  0  0  0  0  0  0  0  0  0  0  0
   15.1505   11.0226   19.8211 He  0  0  0  0  0  0  0  0  0  0  0  0
    7.0235    9.8817   22.9714 He  0  0  0  0  0  0  0  0  0  0  0  0
    6.9989    7.5835   18.2107 He  0  0  0  0  0  0  0  0  0  0  0  0
    9.9096    6.8281   22.4472 He  0  0  0  0  0  0  0  0  0  0  0  0
    9.0480   11.4022   21.8527 He  0  0  0  0  0  0  0  0  0  0  0  0
   10.8400    9.2479   21.2803 He  0  0  0  0  0  0  0  0  0  0  0  0
    5.2007    5.1586   23.2436 He  0  0  0  0  0  0  0  0  0  0  0  0
   10.6231    5.5640   24.3245 He  0  0  0  0  0  0  0  0  0  0  0  0
  1  4  1  0
  1  5  1  0
  1  7  1  0
  1  9  2  0
  1 10  3  0
  1 12  4  0
  1 14  2  0
  1 18  2  0
  2  3  2  0
  2  8  4  0
  2  9  4  0
  2 11  4  0
  2 14  3  0
  2 15  2  0
  3  8  2  0
  3 10  4  0
  3 12  2  0
  3 15  1  0
  3 17  3  0
  3 18  1  0
  4  7  4  0
  4  8  2  0
  4 16  3  0
  4 17  2  0
  4 18  3  0
  5  7  3  0
  5  8  4  0
  5 11  1  0
  5 13  4  0
  5 14  1  0
  6  7  2  0
  6  8  4  0
  6 10  3  0
  6 11  3  0
  6 12  4  0
  7  9  1  0
  7 10  4  0
  7 14  3  0
  7 15  4  0
  7 16  2  0
  7 20  4  0
  8 13  1  0
  9 13  1  0
  9 16  1  0
  9 18  4  0
  9 19  4  0
  9 20  1  0
 10 14  4  0
 10 18  2  0
 11 14  2  0
 11 15  4  0
 11 16  2  0
 11 17  3  0
 11 20  3  0
 12 15  2  0
 12 16  2  0
 12 19  2  0
 13 17  4  0
 14 16  1  0
 15 16  2  0
 15 17  1  0
 17 18  1  0
 18 20  1  0
M  END
$$$$

 Created by Python create_sdf_string function

 28 12  0  0  0  0  0  0  0  0999 V2000
   13.7957   10.8431   19.6996 C   0  0  0  0  0  0  0  0  0  0  0  0
    5.7380    8.9332   20.4990 C   0  0  0  0  0  0  0  0  0  0  0  0
   12.9036    9.3930   20.2410 C   0  0  0  0  0  0  0  0  0  0  0  0
    8.3702    6.0626   22.5803 C   0  0  0  0  0  0  0  0  0  0  0  0
   13.6335   10.6904   19.1239 O   0  0  0  0  0  0  0  0  0  0  0  0
    6.0304   11.4941   23.4485 C   0  0  0  0  0  0  0  0  0  0  0  0
   13.9885   11.9957   19.9412 O   0  0  0  0  0  0  0  0  0  0  0  0
    6.2414   11.3103   22.2219 C   0  0  0  0  0  0  0  0  0  0  0  0
    5.3089    6.9298   18.9887 O   0  0  0  0  0  0  0  0  0  0  0  0
    7.2727   10.2962   22.2578 C   0  0  0  0  0  0  0  0  0  0  0  0
    6.1324    7.1144   20.1932 C   0  0  0  0  0  0  0  0  0  0  0  0
    8.8821    7.9892   21.0955 C   0  0  0  0  0  0  0  0  0  0  0  0
    8.8206    7.5640   21.9736 C   0  0  0  0  0  0  0  0  0  0  0  0
   11.0556   10.2007   20.6135 C   0  0  0  0  0  0  0  0  0  0  0  0
    6.6736    7.7985   18.6053 O   0  0  0  0  0  0  0  0  0  0  0  0
    6.3650   10.6173   21.0802 C   0  0  0  0  0  0  0  0  0  0  0  0
   11.0803    8.0873   21.4613 C   0  0  0  0  0  0  0  0  0  0  0  0
    7.8741   11.4137   21.9547 N   0  0  0  0  0  0  0  0  0  0  0  0
    5.5568    7.8722   19.5002 O   0  0  0  0  0  0  0  0  0  0  0  0
   10.3681    6.9058   22.4464 C   0  0  0  0  0  0  0  0  0  0  0  0
    8.3548    6.0948   22.8014 C   0  0  0  0  0  0  0  0  0  0  0  0
    7.9325    6.6718   22.0370 C   0  0  0  0  0  0  0  0  0  0  0  0
   11.1380   10.4887   20.2433 C   0  0  0  0  0  0  0  0  0  0  0  0
    6.4426    6.7868   21.2845 C   0  0  0  0  0  0  0  0  0  0  0  0
    8.8117   10.8934   21.4975 C   0  0  0  0  0  0  0  0  0  0  0  0
   11.0087    9.3213   20.8997 C   0  0  0  0  0  0  0  0  0  0  0  0
    6.0693    5.5979   22.6077 O   0  0  0  0  0  0  0  0  0  0  0  0
   10.2565    5.7723   23.5819 C   0  0  0  0  0  0  0  0  0  0  0  0
  1  5  1  0
  1  7  1  0
  4 21  1  0
  6  8  1  0
  9 19  1  0
 11 19  1  0
 11 24  1  0
 14 23  1  0
 17 20  1  0
 18 25  4  0
 21 22  1  0
 22 24  1  0
M  END
$$$$

 Created by Python create_sdf_string function

 28 17  0  0  0  0  0  0  0  0999 V2000
   13.1130   11.6502   20.0501 N   0  0  0  0  0  0  0  0  0  0  0  0
    6.3478    9.4887   20.8391 C   0  0  0  0  0  0  0  0  0  0  0  0
   13.1916   10.1263   19.4721 O   0  0  0  0  0  0  0  0  0  0  0  0
    5.0441   10.7155   23.5118 O   0  0  0  0  0  0  0  0  0  0  0  0
   13.3349   12.7479   19.7511 O   0  0  0  0  0  0  0  0  0  0  0  0
   11.0402   10.8268   19.3710 O   0  0  0  0  0  0  0  0  0  0  0  0
   10.6294    8.9849   22.0286 C   0  0  0  0  0  0  0  0  0  0  0  0
    7.7310    5.1275   21.7426 Cl  0  0  0  0  0  0  0  0  0  0  0  0
   11.3072    9.6943   20.1726 S   0  0  0  0  0  0  0  0  0  0  0  0
    7.8809   11.5870   21.8936 C   0  0  0  0  0  0  0  0  0  0  0  0
   11.5608    8.5437   21.2654 He  0  0  0  0  0  0  0  0  0  0  0  0
    9.2257    5.3594   23.1885 He  0  0  0  0  0  0  0  0  0  0  0  0
    7.1716   11.2567   22.3105 He  0  0  0  0  0  0  0  0  0  0  0  0
    4.0290    7.0762   18.7496 He  0  0  0  0  0  0  0  0  0  0  0  0
    7.2951    9.8984   23.6411 He  0  0  0  0  0  0  0  0  0  0  0  0
    5.2653    7.6521   19.0289 He  0  0  0  0  0  0  0  0  0  0  0  0
    9.7854    8.3899   21.1812 He  0  0  0  0  0  0  0  0  0  0  0  0
    8.7988    7.5110   22.5945 He  0  0  0  0  0  0  0  0  0  0  0  0
    6.5270    7.1348   17.3968 He  0  0  0  0  0  0  0  0  0  0  0  0
    5.0342    9.6813   20.4972 He  0  0  0  0  0  0  0  0  0  0  0  0
    9.9443    8.3508   19.7516 He  0  0  0  0  0  0  0  0  0  0  0  0
    8.2214   12.4007   22.4226 He  0  0  0  0  0  0  0  0  0  0  0  0
    6.2428    7.7041   20.5454 He  0  0  0  0  0  0  0  0  0  0  0  0
    7.7397    7.7012   22.0447 He  0  0  0  0  0  0  0  0  0  0  0  0
    5.8282    5.4441   21.7666 He  0  0  0  0  0  0  0  0  0  0  0  0
   10.3214    8.9699   22.2906 He  0  0  0  0  0  0  0  0  0  0  0  0
    5.4486    6.4122   20.9832 He  0  0  0  0  0  0  0  0  0  0  0  0
   10.1078    4.1455   24.8897 He  0  0  0  0  0  0  0  0  0  0  0  0
  1  7  4  0
  1  9  3  0
  1 10  1  0
  2  3  2  0
  2  5  2  0
  2  7  1  0
  2  9  1  0
  3  5  2  0
  3  8  2  0
  5  6  4  0
  5  7  2  0
  5  8  3  0
  6  7  4  0
  6  8  1  0
  6  9  1  0
  7  8  1  0
  7  9  2  0
M  END
$$$$

 Created by Python create_sdf_string function

 28 12  0  0  0  0  0  0  0  0999 V2000
   12.7769   11.3471   19.9179 P   0  0  0  0  0  0  0  0  0  0  0  0
    6.7450    8.9723   21.1139 C   0  0  0  0  0  0  0  0  0  0  0  0
   11.4327    8.8911   21.1391 C   0  0  0  0  0  0  0  0  0  0  0  0
    8.9623    5.7902   23.0392 C   0  0  0  0  0  0  0  0  0  0  0  0
   13.4406   10.1294   19.3461 O   0  0  0  0  0  0  0  0  0  0  0  0
    5.6277   11.0256   22.9770 O   0  0  0  0  0  0  0  0  0  0  0  0
   12.8934   11.9053   19.8805 O   0  0  0  0  0  0  0  0  0  0  0  0
    6.8738   11.0764   22.3833 C   0  0  0  0  0  0  0  0  0  0  0  0
    4.4459    7.3056   19.0007 O   0  0  0  0  0  0  0  0  0  0  0  0
    7.5324    9.9359   22.9693 O   0  0  0  0  0  0  0  0  0  0  0  0
    5.2352    7.7692   19.2680 C   0  0  0  0  0  0  0  0  0  0  0  0
    9.8163    8.6266   21.3519 C   0  0  0  0  0  0  0  0  0  0  0  0
    9.2066    7.0733   22.7140 C   0  0  0  0  0  0  0  0  0  0  0  0
   11.4504   10.8589   19.6799 O   0  0  0  0  0  0  0  0  0  0  0  0
    6.1305    7.2868   18.1463 O   0  0  0  0  0  0  0  0  0  0  0  0
    5.5418    9.3553   20.5540 O   0  0  0  0  0  0  0  0  0  0  0  0
   10.0522    8.7208   20.0057 C   0  0  0  0  0  0  0  0  0  0  0  0
    8.0682   11.9008   22.5045 O   0  0  0  0  0  0  0  0  0  0  0  0
    6.0924    7.7141   20.4463 C   0  0  0  0  0  0  0  0  0  0  0  0
    9.9017    8.5824   21.6633 C   0  0  0  0  0  0  0  0  0  0  0  0
    7.8291    5.4608   22.3772 C   0  0  0  0  0  0  0  0  0  0  0  0
    7.4384    7.3308   21.6460 C   0  0  0  0  0  0  0  0  0  0  0  0
   11.3482    9.8888   20.2328 C   0  0  0  0  0  0  0  0  0  0  0  0
    6.2491    6.1186   21.6487 C   0  0  0  0  0  0  0  0  0  0  0  0
    7.5848   11.2417   21.9489 C   0  0  0  0  0  0  0  0  0  0  0  0
   10.4305    9.0395   21.8961 C   0  0  0  0  0  0  0  0  0  0  0  0
    6.0298    6.2653   21.1313 C   0  0  0  0  0  0  0  0  0  0  0  0
    9.6989    5.0429   23.8479 O   0  0  0  0  0  0  0  0  0  0  0  0
  1  7  1  0
  1 14  1  0
  4 13  4  0
  4 21  4  0
  4 28  1  0
  6  8  1  0
  8 25  1  0
  9 11  1  0
 11 19  1  0
 12 20  1  0
 14 23  1  0
 24 27  4  0
M  END
$$$$

 Created by Python create_sdf_string function

 28 27  0  0  0  0  0  0  0  0999 V2000
    7.6682    9.0809   21.3760 C   0  0  0  0  0  0  0  0  0  0  0  0
    9.9283    6.3729   22.9115 Cl  0  0  0  0  0  0  0  0  0  0  0  0
   13.7299   10.4454   19.3403 Se  0  0  0  0  0  0  0  0  0  0  0  0
    7.4272   11.0955   22.3186 C   0  0  0  0  0  0  0  0  0  0  0  0
    4.3684    8.7522   18.7812 O   0  0  0  0  0  0  0  0  0  0  0  0
    4.6794    8.7154   19.2343 C   0  0  0  0  0  0  0  0  0  0  0  0
    6.6234    8.4952   17.0148 O   0  0  0  0  0  0  0  0  0  0  0  0
    9.2554    8.9520   19.3227 N   0  0  0  0  0  0  0  0  0  0  0  0
   10.5243    7.7761   20.7143 C   0  0  0  0  0  0  0  0  0  0  0  0
    6.5304    6.0564   21.8613 N   0  0  0  0  0  0  0  0  0  0  0  0
    8.1788    6.3837   21.8108 F   0  0  0  0  0  0  0  0  0  0  0  0
    6.6868   11.2224   20.3832 C   0  0  0  0  0  0  0  0  0  0  0  0
   10.1418    9.2571   21.4324 C   0  0  0  0  0  0  0  0  0  0  0  0
   12.2655   13.0901   19.7369 He  0  0  0  0  0  0  0  0  0  0  0  0
   11.9880    8.9783   20.5859 He  0  0  0  0  0  0  0  0  0  0  0  0
    5.6449   10.5906   21.0535 He  0  0  0  0  0  0  0  0  0  0  0  0
   13.8678   10.7608   19.0534 He  0  0  0  0  0  0  0  0  0  0  0  0
    6.3451    9.9093   23.1814 He  0  0  0  0  0  0  0  0  0  0  0  0
   10.3271    8.3604   21.1390 He  0  0  0  0  0  0  0  0  0  0  0  0
    8.9148    7.6482   23.7624 He  0  0  0  0  0  0  0  0  0  0  0  0
   10.8586   11.6943   20.3020 He  0  0  0  0  0  0  0  0  0  0  0  0
    5.1509   10.1706   19.7205 He  0  0  0  0  0  0  0  0  0  0  0  0
    8.1970   13.0686   21.7555 He  0  0  0  0  0  0  0  0  0  0  0  0
    6.0889    7.1150   21.4181 He  0  0  0  0  0  0  0  0  0  0  0  0
   11.0711    9.4448   20.6519 He  0  0  0  0  0  0  0  0  0  0  0  0
    5.8769    5.0958   21.0972 He  0  0  0  0  0  0  0  0  0  0  0  0
    6.6880    6.2493   21.1981 He  0  0  0  0  0  0  0  0  0  0  0  0
    8.3591    5.3209   23.2714 He  0  0  0  0  0  0  0  0  0  0  0  0
  1  5  2  0
  1  7  1  0
  1 10  1  0
  2  6  3  0
  2  9  3  0
  2 11  4  0
  2 12  4  0
  3  4  3  0
  3  5  1  0
  3  6  1  0
  3  9  3  0
  4  5  4  0
  4 11  2  0
  5  6  1  0
  5  8  1  0
  5 10  3  0
  5 13  1  0
  6  7  2  0
  6 10  4  0
  7  9  1  0
  7 10  4  0
  7 11  2  0
  7 13  4  0
  9 10  1  0
  9 12  2  0
  9 13  1  0
 11 13  4  0
M  END
$$$$

 Created by Python create_sdf_string function

 28 19  0  0  0  0  0  0  0  0999 V2000
   12.3216   12.0981   19.7368 C   0  0  0  0  0  0  0  0  0  0  0  0
    7.0635    9.1176   21.5063 C   0  0  0  0  0  0  0  0  0  0  0  0
   12.0666    9.6907   20.1568 C   0  0  0  0  0  0  0  0  0  0  0  0
    9.2642    6.3390   22.8570 C   0  0  0  0  0  0  0  0  0  0  0  0
   13.3653   10.5211   19.5550 C   0  0  0  0  0  0  0  0  0  0  0  0
    5.9558   10.4754   21.0655 C   0  0  0  0  0  0  0  0  0  0  0  0
   13.3882   11.2483   19.4529 C   0  0  0  0  0  0  0  0  0  0  0  0
    7.2220   11.0652   21.7109 C   0  0  0  0  0  0  0  0  0  0  0  0
    4.3285    8.4908   19.1126 O   0  0  0  0  0  0  0  0  0  0  0  0
    6.6221    9.5793   22.4963 C   0  0  0  0  0  0  0  0  0  0  0  0
    5.3167    8.4923   19.2474 C   0  0  0  0  0  0  0  0  0  0  0  0
   10.0117    8.1447   21.5586 C   0  0  0  0  0  0  0  0  0  0  0  0
    9.1590    7.3884   23.3583 C   0  0  0  0  0  0  0  0  0  0  0  0
   11.2214   11.3426   20.2383 C   0  0  0  0  0  0  0  0  0  0  0  0
    6.4085    8.2657   18.4454 O   0  0  0  0  0  0  0  0  0  0  0  0
    5.5680   10.0045   19.8441 C   0  0  0  0  0  0  0  0  0  0  0  0
    9.5375    8.8338   19.8025 N   0  0  0  0  0  0  0  0  0  0  0  0
    7.8709   12.3388   21.4997 O   0  0  0  0  0  0  0  0  0  0  0  0
    6.0169    7.7655   21.0258 C   0  0  0  0  0  0  0  0  0  0  0  0
   10.3473    8.1328   20.9348 C   0  0  0  0  0  0  0  0  0  0  0  0
    6.9671    6.4376   21.7947 N   0  0  0  0  0  0  0  0  0  0  0  0
    8.2235    6.5624   22.0314 C   0  0  0  0  0  0  0  0  0  0  0  0
   11.3991    9.8054   20.3454 C   0  0  0  0  0  0  0  0  0  0  0  0
    5.9386    5.3448   21.1438 O   0  0  0  0  0  0  0  0  0  0  0  0
    6.8951   11.3021   20.7651 C   0  0  0  0  0  0  0  0  0  0  0  0
    9.9740    8.9315   21.3151 C   0  0  0  0  0  0  0  0  0  0  0  0
    6.3380    6.4676   21.2684 C   0  0  0  0  0  0  0  0  0  0  0  0
    8.6746    5.4018   23.2259 C   0  0  0  0  0  0  0  0  0  0  0  0
  1  7  4  0
  1 14  4  0
  2 10  1  0
  3  5  4  0
  3 23  4  0
  4 22  4  0
  4 28  1  0
  5  7  4  0
  6 16  1  0
  8 25  1  0
  9 11  1  0
 11 15  2  0
 11 16  1  0
 12 26  1  0
 14 23  4  0
 19 27  1  0
 21 22  1  0
 21 27  1  0
 24 27  2  0
M  END
$$$$

 Created by Python create_sdf_string function

 28 38  0  0  0  0  0  0  0  0999 V2000
   12.4323   12.8324   18.7644 C   0  0  0  0  0  0  0  0  0  0  0  0
   11.7044   10.2819   21.0283 C   0  0  0  0  0  0  0  0  0  0  0  0
   10.6212    5.6994   23.4615 C   0  0  0  0  0  0  0  0  0  0  0  0
   14.3288   11.1800   20.4704 C   0  0  0  0  0  0  0  0  0  0  0  0
    8.3374   11.6848   23.2262 P   0  0  0  0  0  0  0  0  0  0  0  0
    7.4851    9.0487   22.6322 C   0  0  0  0  0  0  0  0  0  0  0  0
   11.0474    7.9755   21.2959 O   0  0  0  0  0  0  0  0  0  0  0  0
    8.7574    6.6144   22.7031 C   0  0  0  0  0  0  0  0  0  0  0  0
   11.5202   12.8283   20.4456 F   0  0  0  0  0  0  0  0  0  0  0  0
    4.7699   10.0818   20.3898 O   0  0  0  0  0  0  0  0  0  0  0  0
    7.8144   12.0263   22.0336 F   0  0  0  0  0  0  0  0  0  0  0  0
   12.0130   10.4730   20.9337 Br  0  0  0  0  0  0  0  0  0  0  0  0
    6.9781    5.4072   20.0121 O   0  0  0  0  0  0  0  0  0  0  0  0
   10.1697    8.9783   21.4930 C   0  0  0  0  0  0  0  0  0  0  0  0
    5.8336    6.4669   21.7575 C   0  0  0  0  0  0  0  0  0  0  0  0
    9.8564    5.1354   24.5189 C   0  0  0  0  0  0  0  0  0  0  0  0
    5.8821    8.8356   22.2583 He  0  0  0  0  0  0  0  0  0  0  0  0
   13.5015   10.0416   19.8865 He  0  0  0  0  0  0  0  0  0  0  0  0
    5.2393    9.7137   21.1457 He  0  0  0  0  0  0  0  0  0  0  0  0
    4.2545    7.4881   19.6449 He  0  0  0  0  0  0  0  0  0  0  0  0
    6.5670    8.4384   18.4999 He  0  0  0  0  0  0  0  0  0  0  0  0
    5.4415    7.6120   18.2572 He  0  0  0  0  0  0  0  0  0  0  0  0
    9.3817    7.5799   20.0006 He  0  0  0  0  0  0  0  0  0  0  0  0
    6.8266    7.7735   21.3079 He  0  0  0  0  0  0  0  0  0  0  0  0
   10.3574    8.1929   21.1164 He  0  0  0  0  0  0  0  0  0  0  0  0
    8.0455    6.4119   21.4926 He  0  0  0  0  0  0  0  0  0  0  0  0
    7.0630    6.2163   22.2481 He  0  0  0  0  0  0  0  0  0  0  0  0
    7.5584   10.7787   21.9210 He  0  0  0  0  0  0  0  0  0  0  0  0
  1  4  1  0
  1  5  1  0
  1  6  4  0
  1  8  1  0
  1 11  4  0
  1 13  1  0
  1 16  1  0
  2  3  1  0
  2  4  3  0
  2 12  3  0
  2 14  2  0
  2 15  1  0
  3  4  1  0
  3  6  1  0
  3  9  1  0
  3 15  4  0
  3 16  1  0
  4  7  4  0
  4  9  3  0
  4 11  4  0
  5  9  3  0
  5 14  4  0
  6  8  1  0
  6 10  1  0
  6 11  1  0
  6 13  1  0
  6 14  4  0
  6 15  2  0
  6 16  2  0
  7 15  4  0
  8 14  1  0
  8 15  2  0
  9 10  3  0
  9 12  4  0
 10 11  1  0
 10 15  4  0
 12 14  4  0
 13 16  4  0
M  END
$$$$

 Created by Python create_sdf_string function

 28 18  0  0  0  0  0  0  0  0999 V2000
   12.7633   12.3938   19.7589 C   0  0  0  0  0  0  0  0  0  0  0  0
    6.1647    9.0472   21.8432 C   0  0  0  0  0  0  0  0  0  0  0  0
   11.6349    9.9510   20.7418 C   0  0  0  0  0  0  0  0  0  0  0  0
   10.3318    5.9366   23.3167 C   0  0  0  0  0  0  0  0  0  0  0  0
   13.2572   10.2778   20.2977 C   0  0  0  0  0  0  0  0  0  0  0  0
    5.3590    9.4116   20.8856 C   0  0  0  0  0  0  0  0  0  0  0  0
   13.6680   11.2656   19.8896 C   0  0  0  0  0  0  0  0  0  0  0  0
    8.3526   11.2888   22.8319 O   0  0  0  0  0  0  0  0  0  0  0  0
    4.5847    7.8230   19.4567 C   0  0  0  0  0  0  0  0  0  0  0  0
    7.7897    9.4428   22.3495 C   0  0  0  0  0  0  0  0  0  0  0  0
    6.4457    8.1062   18.8108 O   0  0  0  0  0  0  0  0  0  0  0  0
   10.7807    8.0809   21.4105 C   0  0  0  0  0  0  0  0  0  0  0  0
    9.0823    6.7406   22.4804 C   0  0  0  0  0  0  0  0  0  0  0  0
   11.7621   12.0932   20.2786 C   0  0  0  0  0  0  0  0  0  0  0  0
    5.3953    7.4539   19.2094 C   0  0  0  0  0  0  0  0  0  0  0  0
    4.9392    9.8974   20.4668 O   0  0  0  0  0  0  0  0  0  0  0  0
    9.6321    7.7591   20.4390 C   0  0  0  0  0  0  0  0  0  0  0  0
    7.4854   11.5399   21.8513 O   0  0  0  0  0  0  0  0  0  0  0  0
    6.7168    7.8646   21.4727 C   0  0  0  0  0  0  0  0  0  0  0  0
   10.7237    8.4872   21.2406 C   0  0  0  0  0  0  0  0  0  0  0  0
    8.3602    6.5684   21.9846 C   0  0  0  0  0  0  0  0  0  0  0  0
    7.4606    6.1711   22.0721 C   0  0  0  0  0  0  0  0  0  0  0  0
   11.4850   10.6358   20.8091 C   0  0  0  0  0  0  0  0  0  0  0  0
    6.8226    5.8716   20.3192 O   0  0  0  0  0  0  0  0  0  0  0  0
    7.5806   10.8964   22.2525 C   0  0  0  0  0  0  0  0  0  0  0  0
   10.0520    9.0441   21.4536 C   0  0  0  0  0  0  0  0  0  0  0  0
    6.1291    6.9694   21.2939 C   0  0  0  0  0  0  0  0  0  0  0  0
    9.6716    5.4385   23.8896 C   0  0  0  0  0  0  0  0  0  0  0  0
  1  7  4  0
  1 14  4  0
  2  6  1  0
  2 19  1  0
  3  5  4  0
  3 23  1  0
  4 28  1  0
  5  7  4  0
  6 16  1  0
  8 25  1  0
  9 15  1  0
 11 15  1  0
 12 20  4  0
 13 21  1  0
 14 23  4  0
 18 25  1  0
 19 27  1  0
 21 22  1  0
M  END
$$$$

 Created by Python create_sdf_string function

 28 36  0  0  0  0  0  0  0  0999 V2000
   13.4046   12.1122   19.4926 C   0  0  0  0  0  0  0  0  0  0  0  0
    7.2018    8.9674   22.0014 C   0  0  0  0  0  0  0  0  0  0  0  0
   14.7442   10.0975   19.8875 F   0  0  0  0  0  0  0  0  0  0  0  0
    6.1434    9.7272   21.5947 N   0  0  0  0  0  0  0  0  0  0  0  0
    4.8279    6.6745   20.1579 F   0  0  0  0  0  0  0  0  0  0  0  0
    5.3216    9.6690   20.7092 O   0  0  0  0  0  0  0  0  0  0  0  0
   10.1451    8.7596   21.4539 Cl  0  0  0  0  0  0  0  0  0  0  0  0
    8.6163    6.8802   21.8421 C   0  0  0  0  0  0  0  0  0  0  0  0
   10.9361   11.6996   20.8044 N   0  0  0  0  0  0  0  0  0  0  0  0
    6.7623    4.6163   20.6617 O   0  0  0  0  0  0  0  0  0  0  0  0
    7.7894   11.2416   22.1585 F   0  0  0  0  0  0  0  0  0  0  0  0
   10.3662    8.7256   21.2487 C   0  0  0  0  0  0  0  0  0  0  0  0
    6.5210    7.4259   21.4345 C   0  0  0  0  0  0  0  0  0  0  0  0
   10.0079    5.3639   24.2243 N   0  0  0  0  0  0  0  0  0  0  0  0
   12.4000   10.0920   19.9918 He  0  0  0  0  0  0  0  0  0  0  0  0
   10.7558    7.8282   22.2480 He  0  0  0  0  0  0  0  0  0  0  0  0
   13.7366   10.3457   19.8813 He  0  0  0  0  0  0  0  0  0  0  0  0
    9.0341   11.7598   21.0734 He  0  0  0  0  0  0  0  0  0  0  0  0
    8.3501    9.9941   22.0898 He  0  0  0  0  0  0  0  0  0  0  0  0
    6.4160    7.9515   18.9320 He  0  0  0  0  0  0  0  0  0  0  0  0
   11.7036    9.5551   20.8395 He  0  0  0  0  0  0  0  0  0  0  0  0
    9.0167    6.3836   22.3437 He  0  0  0  0  0  0  0  0  0  0  0  0
   11.4202   12.4532   19.8362 He  0  0  0  0  0  0  0  0  0  0  0  0
    4.5141    8.3214   18.1916 He  0  0  0  0  0  0  0  0  0  0  0  0
    9.2911    8.1921   20.2643 He  0  0  0  0  0  0  0  0  0  0  0  0
    7.6414   11.5784   21.8219 He  0  0  0  0  0  0  0  0  0  0  0  0
    7.5859    7.4255   21.8960 He  0  0  0  0  0  0  0  0  0  0  0  0
    7.4107    6.7810   23.1206 He  0  0  0  0  0  0  0  0  0  0  0  0
  1  2  3  0
  1  4  1  0
  1  5  4  0
  1  6  3  0
  1  7  3  0
  1  9  2  0
  1 10  2  0
  1 12  3  0
  2  3  2  0
  2  4  1  0
  2  5  3  0
  2  6  3  0
  2 11  3  0
  3  7  4  0
  3  8  4  0
  3  9  2  0
  3 10  1  0
  4  6  1  0
  4  8  2  0
  4 11  3  0
  4 13  4  0
  5 10  1  0
  5 11  3  0
  6  7  2  0
  6 14  2  0
  7  9  3  0
  7 14  1  0
  8  9  4  0
  8 14  3  0
  9 11  1  0
  9 13  1  0
  9 14  4  0
 10 11  2  0
 10 13  1  0
 11 13  1  0
 11 14  4  0
M  END
$$$$

 Created by Python create_sdf_string function

 28 16  0  0  0  0  0  0  0  0999 V2000
   13.2253   11.8925   19.6645 C   0  0  0  0  0  0  0  0  0  0  0  0
    7.1409    9.2944   21.8782 C   0  0  0  0  0  0  0  0  0  0  0  0
   12.3599    9.9286   20.4047 C   0  0  0  0  0  0  0  0  0  0  0  0
   10.8085    7.4057   22.3190 C   0  0  0  0  0  0  0  0  0  0  0  0
   14.2970   10.2774   19.7804 C   0  0  0  0  0  0  0  0  0  0  0  0
    6.2233    9.4852   21.4171 C   0  0  0  0  0  0  0  0  0  0  0  0
   13.6641   10.6163   19.8777 C   0  0  0  0  0  0  0  0  0  0  0  0
    8.8595   11.8144   21.3718 O   0  0  0  0  0  0  0  0  0  0  0  0
    5.1683    6.8396   19.7733 C   0  0  0  0  0  0  0  0  0  0  0  0
    8.0360   10.0493   21.8974 C   0  0  0  0  0  0  0  0  0  0  0  0
    5.8406    7.7741   19.1473 C   0  0  0  0  0  0  0  0  0  0  0  0
   11.7841    9.6839   20.6642 C   0  0  0  0  0  0  0  0  0  0  0  0
    9.3203    6.3223   22.6601 C   0  0  0  0  0  0  0  0  0  0  0  0
   11.8047   12.0070   20.1187 C   0  0  0  0  0  0  0  0  0  0  0  0
    4.6635    8.1406   19.1179 O   0  0  0  0  0  0  0  0  0  0  0  0
    5.3915    9.4071   20.5085 O   0  0  0  0  0  0  0  0  0  0  0  0
    9.5706    8.2920   20.4624 C   0  0  0  0  0  0  0  0  0  0  0  0
    7.7317   11.6027   21.8240 C   0  0  0  0  0  0  0  0  0  0  0  0
    7.6031    7.4990   21.8441 C   0  0  0  0  0  0  0  0  0  0  0  0
   10.4692    9.0423   21.3124 C   0  0  0  0  0  0  0  0  0  0  0  0
    7.7898    6.6525   22.8798 C   0  0  0  0  0  0  0  0  0  0  0  0
    8.4055    7.0053   22.0764 C   0  0  0  0  0  0  0  0  0  0  0  0
   11.1295   11.3572   20.4953 C   0  0  0  0  0  0  0  0  0  0  0  0
    6.5545    5.5747   20.8705 O   0  0  0  0  0  0  0  0  0  0  0  0
    7.5123   11.5274   21.9838 C   0  0  0  0  0  0  0  0  0  0  0  0
   10.4621    8.8289   21.3164 C   0  0  0  0  0  0  0  0  0  0  0  0
    6.3876    7.2523   20.9869 C   0  0  0  0  0  0  0  0  0  0  0  0
    9.8764    5.6901   23.5720 O   0  0  0  0  0  0  0  0  0  0  0  0
  1  7  4  0
  1 14  4  0
  2  6  1  0
  2 10  1  0
  3 12  4  0
  5  7  1  0
  6 16  1  0
  8 18  1  0
 12 20  4  0
 13 28  1  0
 14 23  4  0
 18 25  1  0
 19 22  1  0
 19 27  1  0
 20 26  1  0
 21 22  1  0
M  END
$$$$

 Created by Python create_sdf_string function

 28 50  0  0  0  0  0  0  0  0999 V2000
   12.8965   12.8423   19.4939 N   0  0  0  0  0  0  0  0  0  0  0  0
   11.8782   10.0644   20.7307 C   0  0  0  0  0  0  0  0  0  0  0  0
   11.1724    6.9782   22.4504 C   0  0  0  0  0  0  0  0  0  0  0  0
   13.4669   11.0873   20.9602 F   0  0  0  0  0  0  0  0  0  0  0  0
    6.8539    9.4847   20.8512 C   0  0  0  0  0  0  0  0  0  0  0  0
    8.3073   11.8954   23.3178 F   0  0  0  0  0  0  0  0  0  0  0  0
    6.0345    6.8973   18.9310 C   0  0  0  0  0  0  0  0  0  0  0  0
   11.1268    9.7694   19.0594 C   0  0  0  0  0  0  0  0  0  0  0  0
    9.5352    6.5060   22.8598 O   0  0  0  0  0  0  0  0  0  0  0  0
    5.5524    7.4675   18.7951 O   0  0  0  0  0  0  0  0  0  0  0  0
    4.0552    9.1598   21.3390 O   0  0  0  0  0  0  0  0  0  0  0  0
   10.2018    6.9352   19.6472 S   0  0  0  0  0  0  0  0  0  0  0  0
    9.0257   11.9840   21.9745 C   0  0  0  0  0  0  0  0  0  0  0  0
    7.8174    8.1547   21.1622 C   0  0  0  0  0  0  0  0  0  0  0  0
    7.7760    4.6028   21.9656 O   0  0  0  0  0  0  0  0  0  0  0  0
    8.4204   10.9323   21.8404 F   0  0  0  0  0  0  0  0  0  0  0  0
   10.1611    8.8111   22.1081 N   0  0  0  0  0  0  0  0  0  0  0  0
    6.8422    6.7969   21.4121 O   0  0  0  0  0  0  0  0  0  0  0  0
   10.1026    4.9997   23.8728 C   0  0  0  0  0  0  0  0  0  0  0  0
    6.7667    9.6785   21.1371 He  0  0  0  0  0  0  0  0  0  0  0  0
   13.4446   10.2025   20.2013 He  0  0  0  0  0  0  0  0  0  0  0  0
    5.5176    5.8178   19.3984 He  0  0  0  0  0  0  0  0  0  0  0  0
    8.2913    9.4932   22.9281 He  0  0  0  0  0  0  0  0  0  0  0  0
   11.5742   12.1802   20.0586 He  0  0  0  0  0  0  0  0  0  0  0  0
   11.5855    9.6958   21.2092 He  0  0  0  0  0  0  0  0  0  0  0  0
    8.1252    7.2761   23.0412 He  0  0  0  0  0  0  0  0  0  0  0  0
    9.2180    7.5789   21.1025 He  0  0  0  0  0  0  0  0  0  0  0  0
   11.1215   10.9317   20.2777 He  0  0  0  0  0  0  0  0  0  0  0  0
  1  4  4  0
  1 13  2  0
  2  4  4  0
  2  8  4  0
  2  9  3  0
  2 11  1  0
  2 13  2  0
  3 13  4  0
  3 15  2  0
  3 16  4  0
  3 18  4  0
  4  6  2  0
  4  7  2  0
  4  8  1  0
  4 12  4  0
  4 14  4  0
  4 18  3  0
  5 11  2  0
  5 13  2  0
  6  9  3  0
  6 10  1  0
  6 11  1  0
  7  8  4  0
  7 10  1  0
  7 13  3  0
  7 16  1  0
  7 18  3  0
  8  9  2  0
  8 11  2  0
  8 14  3  0
  9 12  2  0
  9 13  1  0
  9 19  1  0
 10 13  1  0
 10 19  2  0
 11 15  3  0
 11 17  3  0
 11 18  4  0
 11 19  4  0
 12 16  4  0
 12 18  2  0
 13 16  1  0
 13 17  2  0
 13 18  1  0
 14 16  3  0
 14 17  3  0
 14 19  3  0
 15 17  1  0
 15 19  3  0
 17 18  1  0
M  END
$$$$

 Created by Python create_sdf_string function

 28 13  0  0  0  0  0  0  0  0999 V2000
   12.9449   12.3266   19.9365 C   0  0  0  0  0  0  0  0  0  0  0  0
    6.9919    9.5362   21.4665 C   0  0  0  0  0  0  0  0  0  0  0  0
   11.8497   10.1328   20.6448 C   0  0  0  0  0  0  0  0  0  0  0  0
   10.8190    6.8466   22.5867 C   0  0  0  0  0  0  0  0  0  0  0  0
   13.1553   11.1111   20.2985 C   0  0  0  0  0  0  0  0  0  0  0  0
    6.4361    9.2770   21.1050 C   0  0  0  0  0  0  0  0  0  0  0  0
   13.5922   10.4037   20.0591 C   0  0  0  0  0  0  0  0  0  0  0  0
    8.1525   11.7046   22.9216 O   0  0  0  0  0  0  0  0  0  0  0  0
    5.5856    6.2158   19.4010 C   0  0  0  0  0  0  0  0  0  0  0  0
    7.9618    9.4451   22.1946 C   0  0  0  0  0  0  0  0  0  0  0  0
    5.8132    7.1483   19.3858 C   0  0  0  0  0  0  0  0  0  0  0  0
   11.4484   10.0843   19.8709 C   0  0  0  0  0  0  0  0  0  0  0  0
    9.8011    5.9986   22.9722 O   0  0  0  0  0  0  0  0  0  0  0  0
   11.7134   12.2507   20.2132 C   0  0  0  0  0  0  0  0  0  0  0  0
    5.5594    7.6185   18.9928 O   0  0  0  0  0  0  0  0  0  0  0  0
    4.8760    9.0172   20.9222 O   0  0  0  0  0  0  0  0  0  0  0  0
    9.8379    7.1266   20.1575 O   0  0  0  0  0  0  0  0  0  0  0  0
    8.9944   11.5772   21.6816 C   0  0  0  0  0  0  0  0  0  0  0  0
    7.9524    7.7503   21.2672 C   0  0  0  0  0  0  0  0  0  0  0  0
   11.3863    9.3322   21.1732 C   0  0  0  0  0  0  0  0  0  0  0  0
    8.5304    7.2936   22.5625 C   0  0  0  0  0  0  0  0  0  0  0  0
    8.9312    7.4824   21.6868 C   0  0  0  0  0  0  0  0  0  0  0  0
   10.6465   11.1055   20.3205 C   0  0  0  0  0  0  0  0  0  0  0  0
    8.0359    5.1994   21.9915 O   0  0  0  0  0  0  0  0  0  0  0  0
    8.6820   11.2310   21.7000 C   0  0  0  0  0  0  0  0  0  0  0  0
    9.9370    9.0423   21.8020 C   0  0  0  0  0  0  0  0  0  0  0  0
    6.9628    6.9047   20.8629 O   0  0  0  0  0  0  0  0  0  0  0  0
    9.7819    5.5213   23.2467 C   0  0  0  0  0  0  0  0  0  0  0  0
  1  5  4  0
  1 14  4  0
  2  6  1  0
  2 10  1  0
  3 12  4  0
  6 16  2  0
  9 11  1  0
 11 15  1  0
 13 28  1  0
 18 25  1  0
 19 22  1  0
 19 27  1  0
 21 22  1  0
M  END
$$$$

 Created by Python create_sdf_string function

 28 42  0  0  0  0  0  0  0  0999 V2000
   13.5311   10.8816   20.6615 F   0  0  0  0  0  0  0  0  0  0  0  0
   13.9130   12.4394   21.5059 C   0  0  0  0  0  0  0  0  0  0  0  0
    6.8055    9.0357   21.1725 C   0  0  0  0  0  0  0  0  0  0  0  0
   13.5052    8.9332   19.8927 C   0  0  0  0  0  0  0  0  0  0  0  0
    4.5065    5.6325   18.3792 N   0  0  0  0  0  0  0  0  0  0  0  0
    9.4902    6.5847   23.4861 N   0  0  0  0  0  0  0  0  0  0  0  0
    6.1416    7.5246   20.1989 F   0  0  0  0  0  0  0  0  0  0  0  0
    9.1844    6.3875   20.3093 O   0  0  0  0  0  0  0  0  0  0  0  0
   10.0597   11.8961   22.5747 C   0  0  0  0  0  0  0  0  0  0  0  0
    8.9761    7.6495   20.8531 C   0  0  0  0  0  0  0  0  0  0  0  0
   10.4769    8.8439   20.7568 C   0  0  0  0  0  0  0  0  0  0  0  0
    8.7453    6.1702   23.4466 C   0  0  0  0  0  0  0  0  0  0  0  0
    8.9675    7.9145   21.4112 C   0  0  0  0  0  0  0  0  0  0  0  0
    6.5825   10.7783   21.7644 C   0  0  0  0  0  0  0  0  0  0  0  0
    7.4501    7.2070   20.8722 N   0  0  0  0  0  0  0  0  0  0  0  0
   10.3007    5.2076   23.7296 C   0  0  0  0  0  0  0  0  0  0  0  0
    6.7830    8.9639   20.2449 He  0  0  0  0  0  0  0  0  0  0  0  0
   12.4931   10.2212   19.8255 He  0  0  0  0  0  0  0  0  0  0  0  0
   12.0058    6.3340   22.4625 He  0  0  0  0  0  0  0  0  0  0  0  0
    8.1160   12.0019   22.5084 He  0  0  0  0  0  0  0  0  0  0  0  0
    8.1414    9.3985   22.4170 He  0  0  0  0  0  0  0  0  0  0  0  0
    6.1746    7.0425   19.2877 He  0  0  0  0  0  0  0  0  0  0  0  0
   10.1891   10.2615   19.4705 He  0  0  0  0  0  0  0  0  0  0  0  0
   11.3143   12.0402   18.7655 He  0  0  0  0  0  0  0  0  0  0  0  0
    5.1315    9.3413   21.3536 He  0  0  0  0  0  0  0  0  0  0  0  0
   11.0780   10.7626   21.4997 He  0  0  0  0  0  0  0  0  0  0  0  0
    8.7030    5.2896   22.3596 He  0  0  0  0  0  0  0  0  0  0  0  0
    8.7969    9.0987   21.0688 He  0  0  0  0  0  0  0  0  0  0  0  0
  1  2  4  0
  1  3  2  0
  2  5  4  0
  2  6  3  0
  2 13  4  0
  2 15  1  0
  2 16  3  0
  3  6  4  0
  3  7  2  0
  3  9  1  0
  3 11  3  0
  3 15  4  0
  4  8  1  0
  4 10  4  0
  4 11  1  0
  5 11  3  0
  5 12  1  0
  6  7  2  0
  6  9  1  0
  6 10  4  0
  6 14  3  0
  6 16  2  0
  7 10  3  0
  7 12  3  0
  7 13  1  0
  7 14  3  0
  7 15  2  0
  8 10  3  0
  8 12  2  0
  8 14  4  0
  9 14  1  0
 10 11  3  0
 10 15  1  0
 11 16  1  0
 12 13  1  0
 12 14  3  0
 12 15  4  0
 12 16  2  0
 13 14  1  0
 13 15  1  0
 14 15  1  0
 15 16  2  0
M  END
$$$$

 Created by Python create_sdf_string function

 28 16  0  0  0  0  0  0  0  0999 V2000
   13.1078   11.0747   20.3444 C   0  0  0  0  0  0  0  0  0  0  0  0
    6.2452    8.8801   20.7019 C   0  0  0  0  0  0  0  0  0  0  0  0
   12.5292   10.3151   19.7154 C   0  0  0  0  0  0  0  0  0  0  0  0
   11.3934    6.2526   22.8100 C   0  0  0  0  0  0  0  0  0  0  0  0
   13.4443   11.8052   20.8381 O   0  0  0  0  0  0  0  0  0  0  0  0
    6.7848    8.9291   21.0232 C   0  0  0  0  0  0  0  0  0  0  0  0
   13.0628    9.1185   20.2451 C   0  0  0  0  0  0  0  0  0  0  0  0
    7.9923   11.4325   22.2553 C   0  0  0  0  0  0  0  0  0  0  0  0
    5.0124    6.2020   18.7489 N   0  0  0  0  0  0  0  0  0  0  0  0
    8.1488    9.6218   21.9199 C   0  0  0  0  0  0  0  0  0  0  0  0
    5.9582    7.1037   19.4984 C   0  0  0  0  0  0  0  0  0  0  0  0
   11.1222   10.3469   20.0204 C   0  0  0  0  0  0  0  0  0  0  0  0
    9.8930    6.2185   23.5745 N   0  0  0  0  0  0  0  0  0  0  0  0
   11.9149   11.9880   19.4094 O   0  0  0  0  0  0  0  0  0  0  0  0
    5.6994    7.5060   19.6370 C   0  0  0  0  0  0  0  0  0  0  0  0
    5.1688    9.4824   20.8703 C   0  0  0  0  0  0  0  0  0  0  0  0
    9.3630    6.4502   20.0847 O   0  0  0  0  0  0  0  0  0  0  0  0
   10.0513   11.6145   22.2946 C   0  0  0  0  0  0  0  0  0  0  0  0
    8.9188    7.2364   20.9794 C   0  0  0  0  0  0  0  0  0  0  0  0
   10.8881    9.2901   20.7846 C   0  0  0  0  0  0  0  0  0  0  0  0
    8.8710    6.5246   23.1630 C   0  0  0  0  0  0  0  0  0  0  0  0
    8.9060    7.3470   21.7952 C   0  0  0  0  0  0  0  0  0  0  0  0
   10.4674   10.4714   21.3129 C   0  0  0  0  0  0  0  0  0  0  0  0
    8.7933    5.3850   22.5227 C   0  0  0  0  0  0  0  0  0  0  0  0
    6.5009   10.8282   21.7179 C   0  0  0  0  0  0  0  0  0  0  0  0
    9.0848    9.4165   21.4674 C   0  0  0  0  0  0  0  0  0  0  0  0
    7.4641    7.3913   20.6034 N   0  0  0  0  0  0  0  0  0  0  0  0
   10.2754    5.5519   23.5583 C   0  0  0  0  0  0  0  0  0  0  0  0
  1  3  1  0
  1  5  1  0
  2  6  4  0
  2 16  1  0
  4 28  1  0
  6 27  4  0
  8 25  4  0
 10 26  4  0
 11 15  2  0
 13 28  1  0
 17 19  2  0
 19 22  1  0
 19 27  1  0
 20 23  1  0
 21 22  1  0
 23 26  1  0
M  END
$$$$

 Created by Python create_sdf_string function

 28 46  0  0  0  0  0  0  0  0999 V2000
   12.3715   11.1616   18.9710 O   0  0  0  0  0  0  0  0  0  0  0  0
   12.4485    9.5837   20.3257 C   0  0  0  0  0  0  0  0  0  0  0  0
   10.9757    6.0978   22.9554 N   0  0  0  0  0  0  0  0  0  0  0  0
   11.9838   11.6216   20.6723 N   0  0  0  0  0  0  0  0  0  0  0  0
    6.5484    9.7059   20.9358 S   0  0  0  0  0  0  0  0  0  0  0  0
   13.0681    8.4684   20.1981 F   0  0  0  0  0  0  0  0  0  0  0  0
    4.6442    7.5323   19.9000 B   0  0  0  0  0  0  0  0  0  0  0  0
   10.4370   10.1174   19.6190 F   0  0  0  0  0  0  0  0  0  0  0  0
    9.6651    5.9470   23.4092 N   0  0  0  0  0  0  0  0  0  0  0  0
    5.6712    9.9427   21.2744 O   0  0  0  0  0  0  0  0  0  0  0  0
    8.9905   11.2247   23.0011 N   0  0  0  0  0  0  0  0  0  0  0  0
    8.7670    6.9196   20.3543 O   0  0  0  0  0  0  0  0  0  0  0  0
   10.0501    9.3632   21.1202 C   0  0  0  0  0  0  0  0  0  0  0  0
    9.4022    6.2499   22.4369 F   0  0  0  0  0  0  0  0  0  0  0  0
    9.0161    8.0435   22.4222 C   0  0  0  0  0  0  0  0  0  0  0  0
    9.9203   10.5153   20.7781 C   0  0  0  0  0  0  0  0  0  0  0  0
    8.0959    4.7142   23.8347 Br  0  0  0  0  0  0  0  0  0  0  0  0
    7.4186    6.5667   21.1451 C   0  0  0  0  0  0  0  0  0  0  0  0
    8.0087    8.8192   21.3187 He  0  0  0  0  0  0  0  0  0  0  0  0
    6.8225   11.4491   22.3830 He  0  0  0  0  0  0  0  0  0  0  0  0
    6.5426    5.2518   18.9613 He  0  0  0  0  0  0  0  0  0  0  0  0
    8.3894    9.0438   22.7891 He  0  0  0  0  0  0  0  0  0  0  0  0
   12.1925   12.7575   20.3511 He  0  0  0  0  0  0  0  0  0  0  0  0
    6.8945    6.6483   19.3420 He  0  0  0  0  0  0  0  0  0  0  0  0
    9.4728    5.6999   21.4773 He  0  0  0  0  0  0  0  0  0  0  0  0
    5.8455   10.3636   21.8362 He  0  0  0  0  0  0  0  0  0  0  0  0
    9.0933    8.7309   21.7514 He  0  0  0  0  0  0  0  0  0  0  0  0
   11.3620    5.9096   24.2859 He  0  0  0  0  0  0  0  0  0  0  0  0
  1  4  1  0
  1  7  1  0
  1  8  2  0
  1 10  3  0
  1 12  2  0
  1 16  2  0
  1 17  2  0
  2  3  4  0
  2  5  3  0
  2 10  1  0
  2 12  3  0
  2 17  4  0
  2 18  1  0
  3 10  4  0
  3 13  4  0
  3 17  1  0
  3 18  3  0
  4  6  2  0
  4 10  2  0
  4 11  1  0
  4 15  1  0
  4 16  1  0
  4 17  4  0
  4 18  3  0
  5 12  4  0
  5 13  1  0
  5 18  4  0
  6 11  1  0
  6 13  4  0
  6 18  2  0
  7  9  1  0
  7 11  3  0
  7 15  3  0
  7 17  1  0
  7 18  2  0
  8 12  2  0
  8 13  2  0
  8 15  1  0
  9 11  3  0
  9 17  2  0
  9 18  1  0
 10 11  1  0
 11 15  3  0
 11 17  1  0
 12 15  1  0
 12 17  3  0
M  END
$$$$

 Created by Python create_sdf_string function

 28 14  0  0  0  0  0  0  0  0999 V2000
   12.7167   11.1846   19.4128 O   0  0  0  0  0  0  0  0  0  0  0  0
    7.3204    8.4132   21.1326 C   0  0  0  0  0  0  0  0  0  0  0  0
   12.1864    9.5977   19.9955 C   0  0  0  0  0  0  0  0  0  0  0  0
   10.6806    5.8204   23.0820 C   0  0  0  0  0  0  0  0  0  0  0  0
   11.7138   11.5938   20.1865 C   0  0  0  0  0  0  0  0  0  0  0  0
    6.5268    9.6484   21.2946 C   0  0  0  0  0  0  0  0  0  0  0  0
   12.6486    8.6895   19.9956 O   0  0  0  0  0  0  0  0  0  0  0  0
    7.0035   10.9933   22.1986 C   0  0  0  0  0  0  0  0  0  0  0  0
    6.4452    5.6427   19.0191 C   0  0  0  0  0  0  0  0  0  0  0  0
    8.6198    8.8694   22.3428 C   0  0  0  0  0  0  0  0  0  0  0  0
    5.3290    7.3986   19.4383 C   0  0  0  0  0  0  0  0  0  0  0  0
   11.1802   10.1228   19.9711 C   0  0  0  0  0  0  0  0  0  0  0  0
    9.4603    5.5484   23.4298 C   0  0  0  0  0  0  0  0  0  0  0  0
   12.0567   12.3664   20.1975 C   0  0  0  0  0  0  0  0  0  0  0  0
    6.3715    6.7378   19.4143 C   0  0  0  0  0  0  0  0  0  0  0  0
    5.3839    9.8132   20.9121 O   0  0  0  0  0  0  0  0  0  0  0  0
    9.3727    5.8867   21.6247 C   0  0  0  0  0  0  0  0  0  0  0  0
    8.4746   11.2237   22.7560 O   0  0  0  0  0  0  0  0  0  0  0  0
    8.0148    6.9066   20.0115 O   0  0  0  0  0  0  0  0  0  0  0  0
   10.3396    9.4762   21.0133 C   0  0  0  0  0  0  0  0  0  0  0  0
    9.2500    6.6141   22.8362 C   0  0  0  0  0  0  0  0  0  0  0  0
    9.1303    7.6572   22.3806 C   0  0  0  0  0  0  0  0  0  0  0  0
   10.3131   10.7584   20.9343 C   0  0  0  0  0  0  0  0  0  0  0  0
    8.5401    4.8825   23.7508 O   0  0  0  0  0  0  0  0  0  0  0  0
    6.2393   10.7339   22.0525 C   0  0  0  0  0  0  0  0  0  0  0  0
    8.9833    9.2023   21.6659 C   0  0  0  0  0  0  0  0  0  0  0  0
    7.3632    7.0115   20.8891 C   0  0  0  0  0  0  0  0  0  0  0  0
   11.1765    5.6847   23.9539 O   0  0  0  0  0  0  0  0  0  0  0  0
  1  5  1  0
  2 27  1  0
  3  7  1  0
  5 14  1  0
  5 23  1  0
  6  8  1  0
  8 18  2  0
  8 25  1  0
  9 15  1  0
 10 26  1  0
 11 15  1  0
 13 24  2  0
 15 19  1  0
 21 22  1  0
M  END
$$$$

 Created by Python create_sdf_string function

 28 45  0  0  0  0  0  0  0  0999 V2000
   13.0637   10.8460   18.5091 O   0  0  0  0  0  0  0  0  0  0  0  0
    6.7149    9.1352   21.1583 C   0  0  0  0  0  0  0  0  0  0  0  0
   11.5452    9.5814   20.6609 C   0  0  0  0  0  0  0  0  0  0  0  0
   11.5121    5.2951   22.9005 C   0  0  0  0  0  0  0  0  0  0  0  0
   12.2920   11.1510   20.7213 C   0  0  0  0  0  0  0  0  0  0  0  0
    6.0632    5.4190   19.0787 C   0  0  0  0  0  0  0  0  0  0  0  0
    7.8788    9.5365   22.0153 P   0  0  0  0  0  0  0  0  0  0  0  0
   12.0860   10.1650   19.0397 C   0  0  0  0  0  0  0  0  0  0  0  0
    8.3639    5.5484   22.3215 P   0  0  0  0  0  0  0  0  0  0  0  0
    8.2253   10.4693   21.5658 N   0  0  0  0  0  0  0  0  0  0  0  0
    7.3477    6.6014   18.9408 O   0  0  0  0  0  0  0  0  0  0  0  0
   10.2771    6.9243   21.8257 N   0  0  0  0  0  0  0  0  0  0  0  0
   10.2130   10.7444   19.9797 F   0  0  0  0  0  0  0  0  0  0  0  0
    8.5470    5.5878   24.4431 O   0  0  0  0  0  0  0  0  0  0  0  0
    6.1367   10.5434   21.4009 N   0  0  0  0  0  0  0  0  0  0  0  0
    9.5239    8.6723   22.2423 I   0  0  0  0  0  0  0  0  0  0  0  0
    6.1550    7.1272   20.1168 C   0  0  0  0  0  0  0  0  0  0  0  0
   12.4604    5.6000   25.2999 F   0  0  0  0  0  0  0  0  0  0  0  0
    6.6609    9.6044   21.1519 He  0  0  0  0  0  0  0  0  0  0  0  0
   10.9712    9.3671   20.5135 He  0  0  0  0  0  0  0  0  0  0  0  0
    9.2608   11.1187   22.8021 He  0  0  0  0  0  0  0  0  0  0  0  0
    5.1280    6.9602   17.9356 He  0  0  0  0  0  0  0  0  0  0  0  0
    9.0202    6.0899   23.6680 He  0  0  0  0  0  0  0  0  0  0  0  0
   11.9317   11.1324   20.3878 He  0  0  0  0  0  0  0  0  0  0  0  0
    6.0778    6.1990   20.0223 He  0  0  0  0  0  0  0  0  0  0  0  0
    6.2360    8.6188   21.8454 He  0  0  0  0  0  0  0  0  0  0  0  0
   11.0533    8.4654   20.2400 He  0  0  0  0  0  0  0  0  0  0  0  0
    8.6137    6.9467   22.3695 He  0  0  0  0  0  0  0  0  0  0  0  0
  1  4  4  0
  1  5  1  0
  1 10  1  0
  1 16  2  0
  1 17  4  0
  2  5  4  0
  2  9  2  0
  2 11  3  0
  2 16  1  0
  3  6  2  0
  3 12  2  0
  3 13  1  0
  3 17  3  0
  4  6  4  0
  4  7  4  0
  4  9  4  0
  4 14  4  0
  5  7  3  0
  5 10  1  0
  5 13  1  0
  6 14  3  0
  6 15  1  0
  7 10  3  0
  7 12  1  0
  7 13  3  0
  8 10  4  0
  8 13  4  0
  9 14  3  0
 10 12  3  0
 10 14  1  0
 10 15  1  0
 11 14  2  0
 11 16  3  0
 11 17  3  0
 12 15  1  0
 12 16  4  0
 12 17  3  0
 13 17  1  0
 13 18  1  0
 14 15  1  0
 14 16  2  0
 14 17  4  0
 16 17  4  0
 16 18  2  0
 17 18  4  0
M  END
$$$$

 Created by Python create_sdf_string function

 28 23  0  0  0  0  0  0  0  0999 V2000
   13.2496   11.3964   18.8680 O   0  0  0  0  0  0  0  0  0  0  0  0
    6.7550    8.2535   21.1904 C   0  0  0  0  0  0  0  0  0  0  0  0
   11.2430    9.2334   20.3887 C   0  0  0  0  0  0  0  0  0  0  0  0
   10.8223    5.9075   23.4257 C   0  0  0  0  0  0  0  0  0  0  0  0
   12.3942   11.3242   19.9464 C   0  0  0  0  0  0  0  0  0  0  0  0
    6.6378   10.0061   21.3110 C   0  0  0  0  0  0  0  0  0  0  0  0
   10.6509    9.2736   20.9939 C   0  0  0  0  0  0  0  0  0  0  0  0
    9.0301   11.1753   22.5282 O   0  0  0  0  0  0  0  0  0  0  0  0
    5.7993    5.5024   19.1538 C   0  0  0  0  0  0  0  0  0  0  0  0
    8.0926    9.0773   21.8597 C   0  0  0  0  0  0  0  0  0  0  0  0
    5.1967    6.8452   18.6788 O   0  0  0  0  0  0  0  0  0  0  0  0
   12.0529    9.8743   19.1437 C   0  0  0  0  0  0  0  0  0  0  0  0
    9.2468    5.7180   23.7178 C   0  0  0  0  0  0  0  0  0  0  0  0
   12.0890   11.4196   20.3380 C   0  0  0  0  0  0  0  0  0  0  0  0
    6.0579    6.4725   19.2546 C   0  0  0  0  0  0  0  0  0  0  0  0
    6.4230    8.4391   21.7637 C   0  0  0  0  0  0  0  0  0  0  0  0
    8.4306    5.9347   22.6289 C   0  0  0  0  0  0  0  0  0  0  0  0
    8.2035   10.5165   21.8553 C   0  0  0  0  0  0  0  0  0  0  0  0
    7.3344    6.7365   19.0605 O   0  0  0  0  0  0  0  0  0  0  0  0
   11.2409    8.3548   20.0869 C   0  0  0  0  0  0  0  0  0  0  0  0
    8.6329    7.0389   22.5654 C   0  0  0  0  0  0  0  0  0  0  0  0
   10.6439    6.9698   22.2712 N   0  0  0  0  0  0  0  0  0  0  0  0
   10.9463   10.7205   20.2932 C   0  0  0  0  0  0  0  0  0  0  0  0
    9.2966    5.3604   24.1872 C   0  0  0  0  0  0  0  0  0  0  0  0
    6.2834   10.4089   21.3576 N   0  0  0  0  0  0  0  0  0  0  0  0
    9.6102    8.1568   21.9508 C   0  0  0  0  0  0  0  0  0  0  0  0
    6.2476    7.3694   20.4367 C   0  0  0  0  0  0  0  0  0  0  0  0
   11.7960    5.3470   24.3129 O   0  0  0  0  0  0  0  0  0  0  0  0
  1  5  1  0
  2 16  4  0
  2 27  1  0
  3  7  4  0
  3 20  1  0
  4 22  4  0
  4 24  4  0
  4 28  1  0
  5 14  4  0
  6 25  4  0
  7 26  1  0
  8 18  2  0
  9 15  1  0
 10 18  1  0
 11 15  1  0
 12 20  4  0
 13 24  2  0
 14 23  4  0
 15 19  1  0
 15 27  1  0
 17 21  4  0
 21 26  4  0
 22 26  4  0
M  END
$$$$

 Created by Python create_sdf_string function

 28 35  0  0  0  0  0  0  0  0999 V2000
    6.5823    8.8032   20.9486 C   0  0  0  0  0  0  0  0  0  0  0  0
   11.9944   11.2400   20.3337 C   0  0  0  0  0  0  0  0  0  0  0  0
    9.9167   10.7122   21.2056 C   0  0  0  0  0  0  0  0  0  0  0  0
    9.0352   11.5291   21.9678 O   0  0  0  0  0  0  0  0  0  0  0  0
    4.8583    5.6251   19.0160 O   0  0  0  0  0  0  0  0  0  0  0  0
    7.7066    8.9978   22.6493 C   0  0  0  0  0  0  0  0  0  0  0  0
   12.9986    9.5490   18.2826 C   0  0  0  0  0  0  0  0  0  0  0  0
    7.8688    5.8083   24.4370 N   0  0  0  0  0  0  0  0  0  0  0  0
    6.5566    9.3156   21.6835 C   0  0  0  0  0  0  0  0  0  0  0  0
    9.0813    5.6935   22.1065 C   0  0  0  0  0  0  0  0  0  0  0  0
    7.5205    8.0202   18.8125 O   0  0  0  0  0  0  0  0  0  0  0  0
   10.3229    8.5494   21.3253 C   0  0  0  0  0  0  0  0  0  0  0  0
    9.0766    5.6637   22.4132 C   0  0  0  0  0  0  0  0  0  0  0  0
   10.8346    6.5747   22.6317 S   0  0  0  0  0  0  0  0  0  0  0  0
    9.5035    5.0182   24.8668 P   0  0  0  0  0  0  0  0  0  0  0  0
    6.7264    7.3294   20.3231 C   0  0  0  0  0  0  0  0  0  0  0  0
   11.6019    4.6904   23.9783 O   0  0  0  0  0  0  0  0  0  0  0  0
   13.9482   10.5990   19.0246 He  0  0  0  0  0  0  0  0  0  0  0  0
   10.6636    9.3808   21.4928 He  0  0  0  0  0  0  0  0  0  0  0  0
   11.1558    5.5105   22.8447 He  0  0  0  0  0  0  0  0  0  0  0  0
    6.9518   10.8639   21.7389 He  0  0  0  0  0  0  0  0  0  0  0  0
    4.0212    7.0505   18.7469 He  0  0  0  0  0  0  0  0  0  0  0  0
   11.8557   10.8195   19.0699 He  0  0  0  0  0  0  0  0  0  0  0  0
    6.2234    7.4104   19.3401 He  0  0  0  0  0  0  0  0  0  0  0  0
    9.2823    9.8123   21.1449 He  0  0  0  0  0  0  0  0  0  0  0  0
   10.1578   10.3013   21.5164 He  0  0  0  0  0  0  0  0  0  0  0  0
    5.7742    9.9887   20.2908 He  0  0  0  0  0  0  0  0  0  0  0  0
    9.3171    8.9304   20.9004 He  0  0  0  0  0  0  0  0  0  0  0  0
  1  7  4  0
  1  8  4  0
  1  9  4  0
  1 16  1  0
  2 14  4  0
  3  7  4  0
  3 11  4  0
  3 12  4  0
  4  5  3  0
  4  6  1  0
  4  9  3  0
  4 14  4  0
  5  7  1  0
  5 10  4  0
  5 12  4  0
  5 16  1  0
  6 10  2  0
  6 11  3  0
  7 11  1  0
  7 12  4  0
  7 15  1  0
  8 13  1  0
  9 13  4  0
  9 14  4  0
  9 17  2  0
 10 12  3  0
 11 12  1  0
 11 14  4  0
 11 16  3  0
 12 13  1  0
 12 16  1  0
 12 17  2  0
 13 14  3  0
 13 17  3  0
 15 16  1  0
M  END
$$$$

 Created by Python create_sdf_string function

 28 16  0  0  0  0  0  0  0  0999 V2000
   13.5889   10.9499   19.2975 O   0  0  0  0  0  0  0  0  0  0  0  0
    6.5260    8.5356   20.6914 C   0  0  0  0  0  0  0  0  0  0  0  0
   11.0532    9.0665   21.0831 C   0  0  0  0  0  0  0  0  0  0  0  0
   10.7170    5.4889   23.3604 C   0  0  0  0  0  0  0  0  0  0  0  0
   12.3582   10.9990   19.9600 C   0  0  0  0  0  0  0  0  0  0  0  0
    6.7773   10.5630   21.7708 C   0  0  0  0  0  0  0  0  0  0  0  0
   10.3295    9.9911   20.8488 C   0  0  0  0  0  0  0  0  0  0  0  0
    8.9029   11.5108   22.0839 O   0  0  0  0  0  0  0  0  0  0  0  0
    5.0071    6.0798   18.9120 O   0  0  0  0  0  0  0  0  0  0  0  0
    7.7193    9.2596   22.3490 C   0  0  0  0  0  0  0  0  0  0  0  0
    4.6419    7.5293   19.0973 O   0  0  0  0  0  0  0  0  0  0  0  0
   12.5479    9.7383   18.5917 C   0  0  0  0  0  0  0  0  0  0  0  0
    8.2563    5.9434   23.7646 N   0  0  0  0  0  0  0  0  0  0  0  0
   11.9496   10.3037   19.5315 C   0  0  0  0  0  0  0  0  0  0  0  0
    5.7987    7.5138   19.1534 C   0  0  0  0  0  0  0  0  0  0  0  0
    6.6798    9.2516   21.1963 C   0  0  0  0  0  0  0  0  0  0  0  0
    9.3444    6.2825   22.0895 C   0  0  0  0  0  0  0  0  0  0  0  0
    9.5701   10.1613   21.1388 C   0  0  0  0  0  0  0  0  0  0  0  0
    7.1883    7.6890   18.8232 O   0  0  0  0  0  0  0  0  0  0  0  0
   10.6145    8.3530   21.3827 C   0  0  0  0  0  0  0  0  0  0  0  0
    8.7996    6.3476   22.9488 C   0  0  0  0  0  0  0  0  0  0  0  0
   10.6838    6.2796   22.7657 C   0  0  0  0  0  0  0  0  0  0  0  0
   10.5178   10.6103   20.9699 C   0  0  0  0  0  0  0  0  0  0  0  0
    9.7275    5.1090   24.4415 O   0  0  0  0  0  0  0  0  0  0  0  0
    5.2756    9.4152   20.0638 C   0  0  0  0  0  0  0  0  0  0  0  0
    8.6430    9.1412   21.2611 C   0  0  0  0  0  0  0  0  0  0  0  0
    6.3103    7.4061   20.1781 C   0  0  0  0  0  0  0  0  0  0  0  0
   11.4505    4.7376   23.7820 O   0  0  0  0  0  0  0  0  0  0  0  0
  1  5  1  0
  2 16  4  0
  2 27  1  0
  3  7  4  0
  3 20  4  0
  4 22  1  0
  4 24  1  0
  4 28  2  0
  5 14  1  0
  7 18  4  0
 11 15  4  0
 11 25  4  0
 12 14  4  0
 13 21  1  0
 17 21  1  0
 18 23  4  0
M  END
$$$$

 Created by Python create_sdf_string function

 28 39  0  0  0  0  0  0  0  0999 V2000
   12.7931   11.3901   18.9599 N   0  0  0  0  0  0  0  0  0  0  0  0
   11.8007   10.0360   20.5792 O   0  0  0  0  0  0  0  0  0  0  0  0
   12.6383   11.1946   19.0404 C   0  0  0  0  0  0  0  0  0  0  0  0
    5.6233   10.1718   21.1052 F   0  0  0  0  0  0  0  0  0  0  0  0
   10.7737   10.7444   20.9108 C   0  0  0  0  0  0  0  0  0  0  0  0
    4.6380    6.4596   18.8154 O   0  0  0  0  0  0  0  0  0  0  0  0
    8.3875    9.8497   22.8961 Se  0  0  0  0  0  0  0  0  0  0  0  0
    5.6695    7.9268   18.6249 N   0  0  0  0  0  0  0  0  0  0  0  0
   12.7086    9.6603   18.4930 C   0  0  0  0  0  0  0  0  0  0  0  0
    8.9473    5.9515   23.9881 N   0  0  0  0  0  0  0  0  0  0  0  0
   11.7472   11.1169   20.0223 C   0  0  0  0  0  0  0  0  0  0  0  0
    7.2842   10.0020   21.4399 C   0  0  0  0  0  0  0  0  0  0  0  0
    8.2848    7.7371   18.9888 C   0  0  0  0  0  0  0  0  0  0  0  0
    8.3224    5.6364   21.4861 C   0  0  0  0  0  0  0  0  0  0  0  0
   10.4500   11.2452   21.1582 N   0  0  0  0  0  0  0  0  0  0  0  0
    5.5368    8.9426   19.4232 C   0  0  0  0  0  0  0  0  0  0  0  0
    7.0211    9.3148   21.2482 C   0  0  0  0  0  0  0  0  0  0  0  0
    6.3764    8.0864   19.5224 C   0  0  0  0  0  0  0  0  0  0  0  0
    6.1376    8.6939   21.1379 He  0  0  0  0  0  0  0  0  0  0  0  0
    9.8928    4.5978   23.9829 He  0  0  0  0  0  0  0  0  0  0  0  0
    9.2318   11.9904   22.7015 He  0  0  0  0  0  0  0  0  0  0  0  0
    5.4409    8.0411   19.3531 He  0  0  0  0  0  0  0  0  0  0  0  0
   10.4606    5.6359   22.6744 He  0  0  0  0  0  0  0  0  0  0  0  0
   10.1858   10.2011   21.5578 He  0  0  0  0  0  0  0  0  0  0  0  0
   10.2314    8.6772   21.1188 He  0  0  0  0  0  0  0  0  0  0  0  0
   10.8238    6.2903   22.8621 He  0  0  0  0  0  0  0  0  0  0  0  0
   10.6357    5.5684   23.8442 He  0  0  0  0  0  0  0  0  0  0  0  0
   10.4694    5.4435   23.7931 He  0  0  0  0  0  0  0  0  0  0  0  0
  1  7  3  0
  1 11  2  0
  2  9  4  0
  2 10  1  0
  2 11  1  0
  3  4  3  0
  3  5  3  0
  3 10  4  0
  3 12  4  0
  3 14  2  0
  3 18  4  0
  4  9  1  0
  4 12  2  0
  5 18  3  0
  6  7  1  0
  6 13  1  0
  6 15  1  0
  7  8  2  0
  7 15  3  0
  7 16  4  0
  7 18  3  0
  8  9  2  0
  8 15  1  0
  8 16  1  0
  8 17  2  0
  8 18  4  0
  9 11  3  0
 10 12  4  0
 10 14  2  0
 10 15  3  0
 11 14  4  0
 11 16  1  0
 12 13  3  0
 12 14  1  0
 14 18  4  0
 15 16  2  0
 15 17  3  0
 15 18  1  0
 16 18  1  0
M  END
$$$$

 Created by Python create_sdf_string function

 28 19  0  0  0  0  0  0  0  0999 V2000
   12.6661   11.6127   19.1193 N   0  0  0  0  0  0  0  0  0  0  0  0
    6.4753    8.9385   21.0105 C   0  0  0  0  0  0  0  0  0  0  0  0
   11.5560    9.5588   20.2785 C   0  0  0  0  0  0  0  0  0  0  0  0
    9.9416    4.3531   24.1364 C   0  0  0  0  0  0  0  0  0  0  0  0
   12.8343   10.8023   18.8595 C   0  0  0  0  0  0  0  0  0  0  0  0
    5.7417   10.0755   21.2124 C   0  0  0  0  0  0  0  0  0  0  0  0
   10.5511   10.1023   21.0874 C   0  0  0  0  0  0  0  0  0  0  0  0
    9.0528   11.7749   22.5802 O   0  0  0  0  0  0  0  0  0  0  0  0
    4.7636    6.5130   18.6889 O   0  0  0  0  0  0  0  0  0  0  0  0
    8.2247    9.7917   22.4879 N   0  0  0  0  0  0  0  0  0  0  0  0
    5.4824    7.8900   18.8614 N   0  0  0  0  0  0  0  0  0  0  0  0
   12.5373    9.5744   19.1203 C   0  0  0  0  0  0  0  0  0  0  0  0
    8.7615    6.0487   23.4564 C   0  0  0  0  0  0  0  0  0  0  0  0
   11.6467   11.4589   20.1018 C   0  0  0  0  0  0  0  0  0  0  0  0
    5.2016    7.9731   19.2462 C   0  0  0  0  0  0  0  0  0  0  0  0
    7.5137    9.9430   21.8624 C   0  0  0  0  0  0  0  0  0  0  0  0
    9.9841    6.0042   22.5052 C   0  0  0  0  0  0  0  0  0  0  0  0
    9.7891   10.7838   21.7232 C   0  0  0  0  0  0  0  0  0  0  0  0
    7.6166    7.6724   19.2475 C   0  0  0  0  0  0  0  0  0  0  0  0
   10.7344    8.9315   21.1109 N   0  0  0  0  0  0  0  0  0  0  0  0
    8.3551    6.4449   21.9232 C   0  0  0  0  0  0  0  0  0  0  0  0
   10.8833    6.3245   22.4828 C   0  0  0  0  0  0  0  0  0  0  0  0
   10.6870   11.4334   21.0093 N   0  0  0  0  0  0  0  0  0  0  0  0
   10.0062    5.2337   23.8571 C   0  0  0  0  0  0  0  0  0  0  0  0
    5.4333    8.9679   19.7593 C   0  0  0  0  0  0  0  0  0  0  0  0
    7.6246    8.6333   21.3540 C   0  0  0  0  0  0  0  0  0  0  0  0
    6.5357    7.7681   19.4702 C   0  0  0  0  0  0  0  0  0  0  0  0
   10.8064    5.4072   23.8600 C   0  0  0  0  0  0  0  0  0  0  0  0
  1  5  4  0
  1 14  4  0
  2  6  1  0
  3 12  4  0
  3 20  4  0
  5 12  4  0
  7 20  4  0
  8 18  1  0
 10 16  1  0
 11 15  4  0
 13 21  1  0
 13 24  1  0
 14 23  4  0
 17 21  1  0
 17 22  1  0
 18 23  4  0
 19 27  4  0
 22 28  1  0
 24 28  2  0
M  END
$$$$

 Created by Python create_sdf_string function

 28 37  0  0  0  0  0  0  0  0999 V2000
   12.4549   10.9990   20.3010 N   0  0  0  0  0  0  0  0  0  0  0  0
    4.4361    8.8605   22.2649 C   0  0  0  0  0  0  0  0  0  0  0  0
    9.8862    4.2997   24.9296 N   0  0  0  0  0  0  0  0  0  0  0  0
   11.7612    9.9164   18.9879 C   0  0  0  0  0  0  0  0  0  0  0  0
   10.0938    8.9294   21.0226 S   0  0  0  0  0  0  0  0  0  0  0  0
    4.7288    6.8196   18.0490 O   0  0  0  0  0  0  0  0  0  0  0  0
   12.8574   11.2730   18.7262 C   0  0  0  0  0  0  0  0  0  0  0  0
    8.9461    4.8738   23.1388 C   0  0  0  0  0  0  0  0  0  0  0  0
    7.1852    9.0783   20.5584 C   0  0  0  0  0  0  0  0  0  0  0  0
    9.3547   10.6245   22.1596 C   0  0  0  0  0  0  0  0  0  0  0  0
    8.2189    7.9790   19.7120 N   0  0  0  0  0  0  0  0  0  0  0  0
   10.6921    8.2689   22.1711 F   0  0  0  0  0  0  0  0  0  0  0  0
   10.3526    5.9769   22.8631 C   0  0  0  0  0  0  0  0  0  0  0  0
   10.1137    4.4226   22.6960 S   0  0  0  0  0  0  0  0  0  0  0  0
    4.5959    7.4280   19.5733 C   0  0  0  0  0  0  0  0  0  0  0  0
    7.0480    8.7378   19.7991 C   0  0  0  0  0  0  0  0  0  0  0  0
    6.2434    7.7748   18.9758 F   0  0  0  0  0  0  0  0  0  0  0  0
   10.5606    6.2493   23.0770 C   0  0  0  0  0  0  0  0  0  0  0  0
   11.2929    9.9370   20.4495 He  0  0  0  0  0  0  0  0  0  0  0  0
    5.7533   10.6076   21.2521 He  0  0  0  0  0  0  0  0  0  0  0  0
    9.5213   12.5119   23.1700 He  0  0  0  0  0  0  0  0  0  0  0  0
    7.9791   10.5452   24.0476 He  0  0  0  0  0  0  0  0  0  0  0  0
    5.7437    9.8291   18.3954 He  0  0  0  0  0  0  0  0  0  0  0  0
   10.9934   10.8333   20.2517 He  0  0  0  0  0  0  0  0  0  0  0  0
    5.3740    7.8953   18.8478 He  0  0  0  0  0  0  0  0  0  0  0  0
   10.1328    5.8711   21.5190 He  0  0  0  0  0  0  0  0  0  0  0  0
    9.3475    7.0010   22.1180 He  0  0  0  0  0  0  0  0  0  0  0  0
   11.0098   10.2834   20.5411 He  0  0  0  0  0  0  0  0  0  0  0  0
  1  3  1  0
  1  5  2  0
  1  9  3  0
  1 12  2  0
  1 18  4  0
  2 12  3  0
  2 17  4  0
  3  9  4  0
  3 17  2  0
  4 11  4  0
  5  8  3  0
  5 12  3  0
  5 18  2  0
  6 13  4  0
  6 15  1  0
  6 17  3  0
  7  9  3  0
  7 11  4  0
  7 15  1  0
  8 13  2  0
  8 14  1  0
  9 10  1  0
  9 12  4  0
  9 14  1  0
  9 18  1  0
 10 12  1  0
 10 18  3  0
 11 13  2  0
 11 14  1  0
 11 17  3  0
 12 14  3  0
 13 18  1  0
 14 15  3  0
 14 18  2  0
 15 16  1  0
 16 18  2  0
 17 18  3  0
M  END
$$$$

 Created by Python create_sdf_string function

 28 13  0  0  0  0  0  0  0  0999 V2000
   12.4142   10.8427   20.0859 C   0  0  0  0  0  0  0  0  0  0  0  0
    4.6886    8.9290   21.2063 C   0  0  0  0  0  0  0  0  0  0  0  0
   11.6604   10.0346   20.2651 C   0  0  0  0  0  0  0  0  0  0  0  0
   10.1639    4.5089   24.6090 O   0  0  0  0  0  0  0  0  0  0  0  0
   12.0347   10.0124   18.8162 C   0  0  0  0  0  0  0  0  0  0  0  0
    5.8636    9.7226   21.1316 C   0  0  0  0  0  0  0  0  0  0  0  0
    9.9682    8.6610   21.3459 C   0  0  0  0  0  0  0  0  0  0  0  0
    9.6392   11.7543   22.5041 O   0  0  0  0  0  0  0  0  0  0  0  0
    4.5995    6.5998   18.5936 O   0  0  0  0  0  0  0  0  0  0  0  0
    7.9947   10.4639   23.0480 O   0  0  0  0  0  0  0  0  0  0  0  0
    5.8330    9.3492   19.1487 C   0  0  0  0  0  0  0  0  0  0  0  0
   12.8026   11.1223   18.8126 C   0  0  0  0  0  0  0  0  0  0  0  0
    9.4842    4.8448   22.8719 C   0  0  0  0  0  0  0  0  0  0  0  0
   11.1052   10.8787   20.4707 C   0  0  0  0  0  0  0  0  0  0  0  0
    5.2033    7.9906   19.2406 C   0  0  0  0  0  0  0  0  0  0  0  0
    7.9063    9.3554   21.1943 C   0  0  0  0  0  0  0  0  0  0  0  0
    9.5983    6.0204   21.6929 C   0  0  0  0  0  0  0  0  0  0  0  0
    9.1863   10.6219   22.0847 C   0  0  0  0  0  0  0  0  0  0  0  0
    8.0417    8.0976   20.2919 N   0  0  0  0  0  0  0  0  0  0  0  0
   10.1964    8.6454   21.9133 C   0  0  0  0  0  0  0  0  0  0  0  0
    9.4077    6.8715   21.7870 C   0  0  0  0  0  0  0  0  0  0  0  0
   10.4618    5.9351   23.3556 C   0  0  0  0  0  0  0  0  0  0  0  0
   10.8814   10.5113   20.6122 C   0  0  0  0  0  0  0  0  0  0  0  0
    9.8763    4.1711   22.7573 C   0  0  0  0  0  0  0  0  0  0  0  0
    4.6522    7.5463   19.2584 C   0  0  0  0  0  0  0  0  0  0  0  0
    6.7193    9.1079   20.0550 C   0  0  0  0  0  0  0  0  0  0  0  0
    6.2405    7.6693   19.0084 C   0  0  0  0  0  0  0  0  0  0  0  0
   10.5625    6.3154   23.3975 C   0  0  0  0  0  0  0  0  0  0  0  0
  2  6  4  0
  6 26  4  0
  7 20  1  0
  8 18  1  0
  9 25  1  0
 11 26  4  0
 13 17  1  0
 13 24  1  0
 14 23  4  0
 15 25  1  0
 16 19  4  0
 17 21  1  0
 22 28  1  0
M  END
$$$$

 Created by Python create_sdf_string function

 28 51  0  0  0  0  0  0  0  0999 V2000
   12.9078   10.9851   19.0697 C   0  0  0  0  0  0  0  0  0  0  0  0
   10.6762    5.1740   23.9870 O   0  0  0  0  0  0  0  0  0  0  0  0
   11.0804    9.3269   18.8031 C   0  0  0  0  0  0  0  0  0  0  0  0
    6.6061   10.0123   21.4654 C   0  0  0  0  0  0  0  0  0  0  0  0
    9.5195    8.9179   21.4672 N   0  0  0  0  0  0  0  0  0  0  0  0
    9.5261   12.1394   21.5928 O   0  0  0  0  0  0  0  0  0  0  0  0
    3.6482    6.3144   18.6586 O   0  0  0  0  0  0  0  0  0  0  0  0
    5.9918    8.1990   19.6139 I   0  0  0  0  0  0  0  0  0  0  0  0
    9.9066    4.7992   23.1977 C   0  0  0  0  0  0  0  0  0  0  0  0
   11.5932   10.8184   19.4715 F   0  0  0  0  0  0  0  0  0  0  0  0
    7.3456   10.0205   21.0304 N   0  0  0  0  0  0  0  0  0  0  0  0
   10.5028    5.9181   20.9750 Br  0  0  0  0  0  0  0  0  0  0  0  0
    9.8472   10.9375   21.9296 C   0  0  0  0  0  0  0  0  0  0  0  0
   10.1607    8.2160   22.6970 F   0  0  0  0  0  0  0  0  0  0  0  0
   10.2941    6.3260   22.0293 C   0  0  0  0  0  0  0  0  0  0  0  0
   11.1398    6.2096   23.5699 C   0  0  0  0  0  0  0  0  0  0  0  0
    5.2823    6.5409   19.0774 C   0  0  0  0  0  0  0  0  0  0  0  0
    6.7642    7.8929   19.2210 C   0  0  0  0  0  0  0  0  0  0  0  0
    9.2674    6.9909   22.7269 I   0  0  0  0  0  0  0  0  0  0  0  0
    3.8312    7.7464   21.5822 He  0  0  0  0  0  0  0  0  0  0  0  0
   11.1656   10.0235   20.7784 He  0  0  0  0  0  0  0  0  0  0  0  0
    7.4461   11.6730   23.5554 He  0  0  0  0  0  0  0  0  0  0  0  0
   12.4308   10.8169   18.5944 He  0  0  0  0  0  0  0  0  0  0  0  0
    5.8372    8.2108   20.3204 He  0  0  0  0  0  0  0  0  0  0  0  0
    8.6461    7.6419   20.7330 He  0  0  0  0  0  0  0  0  0  0  0  0
   10.6482   10.9240   20.2282 He  0  0  0  0  0  0  0  0  0  0  0  0
    9.4389    4.0563   22.5283 He  0  0  0  0  0  0  0  0  0  0  0  0
    6.6872    9.5226   20.4043 He  0  0  0  0  0  0  0  0  0  0  0  0
  1  6  1  0
  1 10  3  0
  1 12  4  0
  1 18  3  0
  2  9  4  0
  2 13  3  0
  2 14  2  0
  2 16  1  0
  2 19  2  0
  3  5  3  0
  3  6  3  0
  3 13  1  0
  3 17  2  0
  4  9  2  0
  4 10  2  0
  4 18  4  0
  5  6  2  0
  5  8  4  0
  5 11  1  0
  5 14  1  0
  6 13  1  0
  6 17  1  0
  7  8  3  0
  7 10  1  0
  7 12  2  0
  7 13  4  0
  7 14  3  0
  7 15  2  0
  7 17  2  0
  7 19  4  0
  8  9  2  0
  8 13  1  0
  8 17  3  0
  9 11  3  0
  9 12  2  0
  9 19  4  0
 10 12  4  0
 10 14  1  0
 10 18  3  0
 11 13  1  0
 11 14  1  0
 11 16  3  0
 12 15  1  0
 12 16  1  0
 12 19  4  0
 14 16  2  0
 14 17  3  0
 14 18  3  0
 14 19  3  0
 15 19  4  0
 17 19  1  0
M  END
$$$$

 Created by Python create_sdf_string function

 28 20  0  0  0  0  0  0  0  0999 V2000
   12.8892   10.9621   18.9781 C   0  0  0  0  0  0  0  0  0  0  0  0
    4.0455    7.8196   20.7922 O   0  0  0  0  0  0  0  0  0  0  0  0
   11.5324   10.4896   20.5856 C   0  0  0  0  0  0  0  0  0  0  0  0
   10.7137    5.0823   23.9872 C   0  0  0  0  0  0  0  0  0  0  0  0
   10.9416    9.7591   19.0376 C   0  0  0  0  0  0  0  0  0  0  0  0
    6.8261    9.9611   21.4211 C   0  0  0  0  0  0  0  0  0  0  0  0
    9.2155    8.9255   21.6871 N   0  0  0  0  0  0  0  0  0  0  0  0
    9.5623   11.9432   21.7705 O   0  0  0  0  0  0  0  0  0  0  0  0
    3.9689    6.4267   18.9664 O   0  0  0  0  0  0  0  0  0  0  0  0
    7.2913   11.2675   22.6457 O   0  0  0  0  0  0  0  0  0  0  0  0
    5.8227    8.3003   19.8584 C   0  0  0  0  0  0  0  0  0  0  0  0
   12.2051   10.4116   18.4310 C   0  0  0  0  0  0  0  0  0  0  0  0
    9.9941    4.5881   23.1997 C   0  0  0  0  0  0  0  0  0  0  0  0
   12.3613   10.7684   19.5340 C   0  0  0  0  0  0  0  0  0  0  0  0
    5.2551    7.7882   19.9211 C   0  0  0  0  0  0  0  0  0  0  0  0
    8.3214   10.0164   21.4819 N   0  0  0  0  0  0  0  0  0  0  0  0
   10.0420    5.8516   20.8716 C   0  0  0  0  0  0  0  0  0  0  0  0
    9.5468   11.0712   21.4848 C   0  0  0  0  0  0  0  0  0  0  0  0
    8.2559    7.7053   20.5572 C   0  0  0  0  0  0  0  0  0  0  0  0
    9.9873    8.3903   22.3991 C   0  0  0  0  0  0  0  0  0  0  0  0
   10.1585    6.2797   22.0270 C   0  0  0  0  0  0  0  0  0  0  0  0
   10.9464    6.4619   23.6764 C   0  0  0  0  0  0  0  0  0  0  0  0
   10.6651   10.4618   20.4802 C   0  0  0  0  0  0  0  0  0  0  0  0
    9.6495    4.1285   22.4410 C   0  0  0  0  0  0  0  0  0  0  0  0
    4.7480    6.9315   19.2779 C   0  0  0  0  0  0  0  0  0  0  0  0
    6.6036    9.5981   20.7249 C   0  0  0  0  0  0  0  0  0  0  0  0
    6.6459    8.0983   19.3883 C   0  0  0  0  0  0  0  0  0  0  0  0
    9.7572    6.8764   22.2715 C   0  0  0  0  0  0  0  0  0  0  0  0
  1 12  4  0
  1 14  4  0
  3 14  4  0
  3 23  4  0
  4 13  4  0
  4 22  4  0
  5 12  4  0
  5 23  4  0
  6 26  4  0
  7 16  1  0
  7 20  1  0
  8 18  1  0
  9 25  2  0
 11 26  4  0
 13 24  4  0
 15 25  1  0
 16 18  1  0
 17 21  1  0
 18 23  1  0
 21 28  4  0
M  END
$$$$

 Created by Python create_sdf_string function

 28 31  0  0  0  0  0  0  0  0999 V2000
   12.3193   10.9257   19.0513 C   0  0  0  0  0  0  0  0  0  0  0  0
    4.5366    7.5811   20.6021 O   0  0  0  0  0  0  0  0  0  0  0  0
   12.3101   10.4724   20.1520 C   0  0  0  0  0  0  0  0  0  0  0  0
   10.3310   10.3464   19.5379 C   0  0  0  0  0  0  0  0  0  0  0  0
    6.8148    9.4826   21.2991 N   0  0  0  0  0  0  0  0  0  0  0  0
   10.1567    8.4280   21.5009 P   0  0  0  0  0  0  0  0  0  0  0  0
    9.1456   10.9914   22.5511 O   0  0  0  0  0  0  0  0  0  0  0  0
    7.0476   11.5904   23.8898 O   0  0  0  0  0  0  0  0  0  0  0  0
   12.0174   11.4000   18.3486 N   0  0  0  0  0  0  0  0  0  0  0  0
    9.3378    4.4298   22.5470 C   0  0  0  0  0  0  0  0  0  0  0  0
    9.1267   10.1470   21.1496 N   0  0  0  0  0  0  0  0  0  0  0  0
    9.0073    7.8356   20.0951 C   0  0  0  0  0  0  0  0  0  0  0  0
    9.2701    5.6257   21.8155 S   0  0  0  0  0  0  0  0  0  0  0  0
    9.8718    6.9429   23.4084 C   0  0  0  0  0  0  0  0  0  0  0  0
    8.7323    4.6563   23.0389 C   0  0  0  0  0  0  0  0  0  0  0  0
    9.0706    6.1402   22.6632 C   0  0  0  0  0  0  0  0  0  0  0  0
   11.5355    5.2283   23.1922 He  0  0  0  0  0  0  0  0  0  0  0  0
    4.2055    6.1050   19.0107 He  0  0  0  0  0  0  0  0  0  0  0  0
    5.3010    8.6160   20.5924 He  0  0  0  0  0  0  0  0  0  0  0  0
   12.1796   10.6254   19.2360 He  0  0  0  0  0  0  0  0  0  0  0  0
    6.1318    6.5754   19.5293 He  0  0  0  0  0  0  0  0  0  0  0  0
   10.0817    5.8908   20.8932 He  0  0  0  0  0  0  0  0  0  0  0  0
    9.7187   10.4484   21.4532 He  0  0  0  0  0  0  0  0  0  0  0  0
   10.0230    8.6496   22.8555 He  0  0  0  0  0  0  0  0  0  0  0  0
   11.0890   10.7778   19.5151 He  0  0  0  0  0  0  0  0  0  0  0  0
    3.6969    7.0828   19.8163 He  0  0  0  0  0  0  0  0  0  0  0  0
    6.5547    9.6227   19.8671 He  0  0  0  0  0  0  0  0  0  0  0  0
    5.5001    7.6825   18.8574 He  0  0  0  0  0  0  0  0  0  0  0  0
  1  4  1  0
  1  7  1  0
  1  9  4  0
  1 10  2  0
  1 15  1  0
  2  6  3  0
  2  7  1  0
  2 10  2  0
  2 12  1  0
  2 15  3  0
  3  5  3  0
  3  6  3  0
  3  9  2  0
  3 12  2  0
  4  5  3  0
  4  7  3  0
  4 12  3  0
  4 13  2  0
  4 15  3  0
  5  8  3  0
  5  9  3  0
  5 14  3  0
  6  9  3  0
  6 11  1  0
  8 16  4  0
  9 11  4  0
 10 13  2  0
 10 14  1  0
 11 13  1  0
 13 15  4  0
 14 16  2  0
M  END
$$$$

 Created by Python create_sdf_string function

 28 23  0  0  0  0  0  0  0  0999 V2000
   12.1772   10.9305   18.6752 C   0  0  0  0  0  0  0  0  0  0  0  0
    4.2783    7.8256   20.3150 O   0  0  0  0  0  0  0  0  0  0  0  0
   12.0658   10.1542   20.5745 C   0  0  0  0  0  0  0  0  0  0  0  0
   10.8590    4.9904   23.3173 C   0  0  0  0  0  0  0  0  0  0  0  0
   10.3247   10.7045   19.4474 C   0  0  0  0  0  0  0  0  0  0  0  0
    7.2500    9.9544   21.3801 C   0  0  0  0  0  0  0  0  0  0  0  0
    9.7504    8.7139   21.7192 C   0  0  0  0  0  0  0  0  0  0  0  0
    9.1242   11.3650   22.5050 O   0  0  0  0  0  0  0  0  0  0  0  0
    3.9777    6.1470   19.0817 C   0  0  0  0  0  0  0  0  0  0  0  0
    7.1493   11.1011   22.8774 O   0  0  0  0  0  0  0  0  0  0  0  0
    5.5882    8.5011   20.3643 C   0  0  0  0  0  0  0  0  0  0  0  0
   11.7053   11.2403   18.3238 C   0  0  0  0  0  0  0  0  0  0  0  0
    9.8575    4.2365   22.7672 C   0  0  0  0  0  0  0  0  0  0  0  0
   12.8425   10.5229   19.5745 C   0  0  0  0  0  0  0  0  0  0  0  0
    6.0109    6.8699   19.5488 C   0  0  0  0  0  0  0  0  0  0  0  0
    9.0437    9.7850   21.1861 N   0  0  0  0  0  0  0  0  0  0  0  0
    9.8067    5.7044   21.1418 C   0  0  0  0  0  0  0  0  0  0  0  0
    8.5883   10.8024   21.9808 S   0  0  0  0  0  0  0  0  0  0  0  0
    8.6724    7.5849   20.4597 C   0  0  0  0  0  0  0  0  0  0  0  0
    9.8283    8.4126   22.7007 C   0  0  0  0  0  0  0  0  0  0  0  0
    9.2951    5.5778   21.6215 C   0  0  0  0  0  0  0  0  0  0  0  0
   10.1526    6.8568   23.2683 C   0  0  0  0  0  0  0  0  0  0  0  0
   10.9388   10.5506   19.9361 C   0  0  0  0  0  0  0  0  0  0  0  0
    9.2835    4.5149   22.8993 C   0  0  0  0  0  0  0  0  0  0  0  0
    4.1087    7.0040   19.4587 C   0  0  0  0  0  0  0  0  0  0  0  0
    6.4190    9.4377   20.4806 C   0  0  0  0  0  0  0  0  0  0  0  0
    5.4145    7.5099   19.1316 C   0  0  0  0  0  0  0  0  0  0  0  0
    9.4159    6.3210   22.5028 C   0  0  0  0  0  0  0  0  0  0  0  0
  1 12  4  0
  1 14  4  0
  2 11  4  0
  2 25  4  0
  3 14  4  0
  3 23  4  0
  4 13  4  0
  5 12  4  0
  5 23  4  0
  6 18  1  0
  6 26  1  0
  7 16  1  0
  7 20  1  0
  8 18  1  0
  9 25  4  0
 10 18  2  0
 11 26  4  0
 13 24  4  0
 15 27  4  0
 16 18  1  0
 17 21  4  0
 20 22  4  0
 22 28  4  0
M  END
$$$$

 Created by Python create_sdf_string function

 28 71  0  0  0  0  0  0  0  0999 V2000
   10.9640   10.7921   18.7081 F   0  0  0  0  0  0  0  0  0  0  0  0
   10.6062    4.1628   23.1912 I   0  0  0  0  0  0  0  0  0  0  0  0
   10.0165   11.9832   19.4585 C   0  0  0  0  0  0  0  0  0  0  0  0
    7.4379   10.2232   21.2110 C   0  0  0  0  0  0  0  0  0  0  0  0
    9.3814    7.4830   21.3013 C   0  0  0  0  0  0  0  0  0  0  0  0
    3.9005    5.7080   19.0099 C   0  0  0  0  0  0  0  0  0  0  0  0
    7.5620   11.7462   23.3468 P   0  0  0  0  0  0  0  0  0  0  0  0
    5.0081    8.6534   19.9517 C   0  0  0  0  0  0  0  0  0  0  0  0
   11.5127    9.7628   18.8469 C   0  0  0  0  0  0  0  0  0  0  0  0
    8.4882    3.1951   23.0985 O   0  0  0  0  0  0  0  0  0  0  0  0
   11.7810   10.9630   19.3373 C   0  0  0  0  0  0  0  0  0  0  0  0
    6.4277    7.0775   20.2975 C   0  0  0  0  0  0  0  0  0  0  0  0
    9.7386    9.4346   21.3474 S   0  0  0  0  0  0  0  0  0  0  0  0
   10.6433    6.5014   21.3259 P   0  0  0  0  0  0  0  0  0  0  0  0
    8.9032   10.4390   22.4802 S   0  0  0  0  0  0  0  0  0  0  0  0
    9.3688    7.1828   20.0704 N   0  0  0  0  0  0  0  0  0  0  0  0
    8.4847    8.8080   23.4159 C   0  0  0  0  0  0  0  0  0  0  0  0
    9.3763    5.6759   22.3494 F   0  0  0  0  0  0  0  0  0  0  0  0
    3.6238    7.3518   19.0065 N   0  0  0  0  0  0  0  0  0  0  0  0
    6.3877    9.6110   20.7667 C   0  0  0  0  0  0  0  0  0  0  0  0
    5.7110    7.8625   17.9539 C   0  0  0  0  0  0  0  0  0  0  0  0
    8.5353    7.0071   22.7402 N   0  0  0  0  0  0  0  0  0  0  0  0
    3.4939    7.3162   19.9872 He  0  0  0  0  0  0  0  0  0  0  0  0
   12.4669   10.6365   19.1821 He  0  0  0  0  0  0  0  0  0  0  0  0
    9.8266   11.2112   22.4552 He  0  0  0  0  0  0  0  0  0  0  0  0
    8.6385    4.8878   21.3294 He  0  0  0  0  0  0  0  0  0  0  0  0
   10.1968    6.3541   22.8378 He  0  0  0  0  0  0  0  0  0  0  0  0
   12.0000   10.8835   20.1415 He  0  0  0  0  0  0  0  0  0  0  0  0
  1  5  2  0
  1  7  1  0
  1  9  1  0
  1 10  4  0
  1 11  1  0
  1 12  1  0
  1 22  1  0
  2  5  3  0
  2  9  4  0
  2 10  4  0
  2 19  3  0
  3  4  4  0
  3 10  2  0
  3 12  1  0
  3 19  4  0
  4  5  1  0
  4  9  2  0
  4 10  1  0
  4 13  4  0
  4 15  3  0
  4 16  2  0
  4 18  3  0
  4 20  2  0
  5  8  1  0
  5 11  2  0
  5 12  4  0
  5 13  1  0
  5 15  2  0
  5 17  4  0
  5 19  3  0
  6 13  3  0
  6 19  4  0
  6 20  2  0
  6 22  3  0
  7 14  4  0
  7 15  2  0
  7 20  4  0
  7 21  2  0
  8  9  2  0
  8 10  4  0
  8 20  4  0
  8 21  4  0
  9 10  4  0
  9 13  4  0
  9 14  4  0
  9 20  4  0
  9 22  3  0
 10 11  4  0
 10 12  4  0
 10 15  2  0
 10 18  1  0
 10 20  3  0
 11 16  1  0
 11 18  3  0
 11 19  1  0
 12 16  1  0
 12 21  4  0
 12 22  3  0
 13 17  4  0
 13 22  4  0
 14 16  4  0
 14 19  3  0
 14 21  4  0
 15 17  3  0
 15 19  2  0
 16 18  1  0
 16 20  4  0
 17 20  4  0
 17 21  4  0
 19 21  4  0
 20 22  1  0
M  END
$$$$

 Created by Python create_sdf_string function

 28 25  0  0  0  0  0  0  0  0999 V2000
   10.9844   10.3878   18.7127 C   0  0  0  0  0  0  0  0  0  0  0  0
    3.9640    8.0422   19.8171 C   0  0  0  0  0  0  0  0  0  0  0  0
   12.6225   10.8860   19.4090 C   0  0  0  0  0  0  0  0  0  0  0  0
   10.5524    4.0873   23.4137 C   0  0  0  0  0  0  0  0  0  0  0  0
   10.6923   11.0854   20.1394 C   0  0  0  0  0  0  0  0  0  0  0  0
    7.3413    9.6146   21.1846 C   0  0  0  0  0  0  0  0  0  0  0  0
    9.1508    7.7842   22.0327 C   0  0  0  0  0  0  0  0  0  0  0  0
    9.6137   11.5136   22.0864 O   0  0  0  0  0  0  0  0  0  0  0  0
    4.3725    6.2532   18.9503 C   0  0  0  0  0  0  0  0  0  0  0  0
    7.7262   11.4770   22.9989 O   0  0  0  0  0  0  0  0  0  0  0  0
    5.1136    8.7060   20.0192 C   0  0  0  0  0  0  0  0  0  0  0  0
   10.9355   10.0521   19.1618 C   0  0  0  0  0  0  0  0  0  0  0  0
    8.8759    3.5701   22.9380 O   0  0  0  0  0  0  0  0  0  0  0  0
   12.0670   10.6164   18.8370 C   0  0  0  0  0  0  0  0  0  0  0  0
    6.2470    7.3023   19.3390 C   0  0  0  0  0  0  0  0  0  0  0  0
    8.8642    9.6314   21.5727 C   0  0  0  0  0  0  0  0  0  0  0  0
    9.6967    6.2846   20.7513 C   0  0  0  0  0  0  0  0  0  0  0  0
    8.5260   10.8736   22.2735 S   0  0  0  0  0  0  0  0  0  0  0  0
    9.1761    7.1338   20.2521 N   0  0  0  0  0  0  0  0  0  0  0  0
    8.6662    8.9384   22.9807 C   0  0  0  0  0  0  0  0  0  0  0  0
    9.3614    4.9932   21.2252 C   0  0  0  0  0  0  0  0  0  0  0  0
    9.5757    6.2299   23.0411 C   0  0  0  0  0  0  0  0  0  0  0  0
   11.6832   11.2935   20.4520 C   0  0  0  0  0  0  0  0  0  0  0  0
    9.4206    4.8239   22.4851 C   0  0  0  0  0  0  0  0  0  0  0  0
    3.6577    7.0409   19.2620 C   0  0  0  0  0  0  0  0  0  0  0  0
    6.4022    9.3901   20.6236 C   0  0  0  0  0  0  0  0  0  0  0  0
    5.7095    7.3613   19.1242 C   0  0  0  0  0  0  0  0  0  0  0  0
    9.1461    7.3392   22.6407 C   0  0  0  0  0  0  0  0  0  0  0  0
  1 12  4  0
  1 14  4  0
  2 11  4  0
  2 25  4  0
  3 14  4  0
  3 23  4  0
  5 12  4  0
  5 23  4  0
  6 16  4  0
  6 26  4  0
  7 20  4  0
  7 28  4  0
  8 18  1  0
  9 25  4  0
 10 18  2  0
 11 26  4  0
 13 24  1  0
 15 27  4  0
 16 18  1  0
 16 20  4  0
 17 19  4  0
 17 21  4  0
 21 24  4  0
 22 24  4  0
 22 28  4  0
M  END
$$$$

 Created by Python create_sdf_string function

 28 38  0  0  0  0  0  0  0  0999 V2000
   10.6540   10.3303   19.6005 O   0  0  0  0  0  0  0  0  0  0  0  0
    4.4415    7.9812   19.6393 C   0  0  0  0  0  0  0  0  0  0  0  0
   11.8455   10.3879   18.4246 C   0  0  0  0  0  0  0  0  0  0  0  0
   11.0775    4.0920   22.7943 C   0  0  0  0  0  0  0  0  0  0  0  0
    7.1385   10.0667   21.3065 B   0  0  0  0  0  0  0  0  0  0  0  0
    8.4742    7.5808   21.2245 C   0  0  0  0  0  0  0  0  0  0  0  0
    9.7803   12.5200   22.2213 C   0  0  0  0  0  0  0  0  0  0  0  0
    5.3515    7.7102   19.8449 O   0  0  0  0  0  0  0  0  0  0  0  0
   11.4405   10.2777   19.1179 C   0  0  0  0  0  0  0  0  0  0  0  0
   12.6761   11.0758   18.6641 O   0  0  0  0  0  0  0  0  0  0  0  0
    8.8913   10.0534   20.8155 C   0  0  0  0  0  0  0  0  0  0  0  0
    8.2841   10.9541   21.3484 S   0  0  0  0  0  0  0  0  0  0  0  0
    7.7157    8.8645   22.8350 C   0  0  0  0  0  0  0  0  0  0  0  0
   10.0041    4.7753   21.7695 N   0  0  0  0  0  0  0  0  0  0  0  0
   11.6334   11.2391   20.5385 F   0  0  0  0  0  0  0  0  0  0  0  0
    9.6854    5.1394   24.2465 Cl  0  0  0  0  0  0  0  0  0  0  0  0
    9.1741    7.1444   22.9487 C   0  0  0  0  0  0  0  0  0  0  0  0
   10.9810   10.4524   20.1661 He  0  0  0  0  0  0  0  0  0  0  0  0
    4.0869    6.5411   19.0269 He  0  0  0  0  0  0  0  0  0  0  0  0
    7.7250   10.6739   22.6636 He  0  0  0  0  0  0  0  0  0  0  0  0
    8.5011    3.7559   23.2579 He  0  0  0  0  0  0  0  0  0  0  0  0
    6.4342    8.8030   19.9981 He  0  0  0  0  0  0  0  0  0  0  0  0
   10.4594    6.0490   21.1525 He  0  0  0  0  0  0  0  0  0  0  0  0
    8.7684    6.1274   20.4779 He  0  0  0  0  0  0  0  0  0  0  0  0
    9.2728    5.9907   21.7705 He  0  0  0  0  0  0  0  0  0  0  0  0
    3.5303    7.2685   17.8984 He  0  0  0  0  0  0  0  0  0  0  0  0
    5.7679    8.7829   20.3676 He  0  0  0  0  0  0  0  0  0  0  0  0
    6.6179    6.7184   18.8231 He  0  0  0  0  0  0  0  0  0  0  0  0
  1  4  4  0
  1  5  1  0
  1  9  4  0
  1 12  4  0
  1 13  1  0
  1 17  2  0
  2  4  2  0
  2  8  4  0
  2 11  1  0
  3 11  2  0
  4  9  3  0
  4 11  1  0
  4 14  1  0
  4 17  3  0
  5  7  3  0
  5  8  4  0
  5 11  4  0
  5 14  3  0
  5 15  4  0
  6  7  2  0
  6  8  2  0
  6 10  3  0
  6 11  2  0
  6 17  4  0
  7  8  2  0
  7 12  1  0
  7 14  2  0
  7 16  4  0
  8 12  4  0
  9 11  1  0
  9 13  4  0
  9 17  2  0
 10 12  3  0
 10 14  1  0
 11 13  4  0
 11 17  2  0
 14 17  2  0
 15 17  1  0
M  END
$$$$

 Created by Python create_sdf_string function

 28 28  0  0  0  0  0  0  0  0999 V2000
   10.1675   10.0081   19.7155 C   0  0  0  0  0  0  0  0  0  0  0  0
    4.2973    7.5780   19.3369 C   0  0  0  0  0  0  0  0  0  0  0  0
   12.0986   10.3575   18.6543 C   0  0  0  0  0  0  0  0  0  0  0  0
   10.8988    4.1248   22.3872 C   0  0  0  0  0  0  0  0  0  0  0  0
   10.7848   10.9661   20.5645 C   0  0  0  0  0  0  0  0  0  0  0  0
    7.3218   10.2676   20.8127 N   0  0  0  0  0  0  0  0  0  0  0  0
    8.2248    7.6782   21.0934 C   0  0  0  0  0  0  0  0  0  0  0  0
    9.9469   11.9533   21.8857 C   0  0  0  0  0  0  0  0  0  0  0  0
    4.6823    6.3937   18.7940 C   0  0  0  0  0  0  0  0  0  0  0  0
    7.9366   11.5331   22.7253 O   0  0  0  0  0  0  0  0  0  0  0  0
    4.8563    8.2974   19.7705 C   0  0  0  0  0  0  0  0  0  0  0  0
   11.0397    9.8682   18.7751 C   0  0  0  0  0  0  0  0  0  0  0  0
    9.0129    4.0118   23.6587 C   0  0  0  0  0  0  0  0  0  0  0  0
   12.9083   10.8907   18.7181 C   0  0  0  0  0  0  0  0  0  0  0  0
    6.6214    8.2261   19.9573 C   0  0  0  0  0  0  0  0  0  0  0  0
    8.3467    9.9335   21.3024 C   0  0  0  0  0  0  0  0  0  0  0  0
    9.7358    5.7162   21.0397 C   0  0  0  0  0  0  0  0  0  0  0  0
    8.7131   11.1387   21.7859 S   0  0  0  0  0  0  0  0  0  0  0  0
    8.9760    6.4775   20.4916 C   0  0  0  0  0  0  0  0  0  0  0  0
    8.2175    8.4665   22.0940 C   0  0  0  0  0  0  0  0  0  0  0  0
   10.1493    4.8324   22.1115 N   0  0  0  0  0  0  0  0  0  0  0  0
    9.2145    6.0664   22.7373 C   0  0  0  0  0  0  0  0  0  0  0  0
   11.7420   11.3865   20.3676 C   0  0  0  0  0  0  0  0  0  0  0  0
    9.3554    5.1263   24.1481 C   0  0  0  0  0  0  0  0  0  0  0  0
    3.3417    7.4813   18.8157 F   0  0  0  0  0  0  0  0  0  0  0  0
    5.9262    8.7552   20.0901 C   0  0  0  0  0  0  0  0  0  0  0  0
    6.1014    6.9100   18.8286 C   0  0  0  0  0  0  0  0  0  0  0  0
    8.8669    6.9456   23.1251 C   0  0  0  0  0  0  0  0  0  0  0  0
  1  5  4  0
  1 12  4  0
  2  9  4  0
  2 11  4  0
  2 25  1  0
  3 12  4  0
  3 14  4  0
  4 21  1  0
  5  8  1  0
  5 23  4  0
  6 16  1  0
  7 15  1  0
  7 19  4  0
  7 20  4  0
  8 18  1  0
  9 27  4  0
 10 18  2  0
 11 26  4  0
 13 24  1  0
 15 26  4  0
 15 27  4  0
 16 18  1  0
 16 20  4  0
 17 19  4  0
 17 21  4  0
 20 28  4  0
 22 24  1  0
 22 28  4  0
M  END
$$$$

 Created by Python create_sdf_string function

 28 63  0  0  0  0  0  0  0  0999 V2000
    3.7171    7.6724   19.6121 C   0  0  0  0  0  0  0  0  0  0  0  0
   11.9762    9.7426   19.7536 C   0  0  0  0  0  0  0  0  0  0  0  0
   10.1652    3.8900   22.8548 C   0  0  0  0  0  0  0  0  0  0  0  0
   11.2982   10.7503   20.0987 C   0  0  0  0  0  0  0  0  0  0  0  0
    7.2417   10.9717   20.9051 N   0  0  0  0  0  0  0  0  0  0  0  0
    7.8859    7.2417   20.8389 C   0  0  0  0  0  0  0  0  0  0  0  0
   10.3099   10.9387   20.2052 C   0  0  0  0  0  0  0  0  0  0  0  0
    2.4992    6.4069   18.3454 P   0  0  0  0  0  0  0  0  0  0  0  0
    7.4565   11.9373   22.8240 O   0  0  0  0  0  0  0  0  0  0  0  0
    4.1340    8.9717   19.3771 C   0  0  0  0  0  0  0  0  0  0  0  0
   10.7257    9.6608   18.7327 C   0  0  0  0  0  0  0  0  0  0  0  0
    8.8133    4.1632   23.3981 C   0  0  0  0  0  0  0  0  0  0  0  0
    6.7084    6.5240   19.9150 C   0  0  0  0  0  0  0  0  0  0  0  0
    8.3032   10.1988   21.9049 C   0  0  0  0  0  0  0  0  0  0  0  0
    8.0653   10.7568   22.2350 Cl  0  0  0  0  0  0  0  0  0  0  0  0
    8.2440    6.8235   20.5661 C   0  0  0  0  0  0  0  0  0  0  0  0
    7.7475    8.9682   22.7291 C   0  0  0  0  0  0  0  0  0  0  0  0
    9.9024    5.1479   22.5720 F   0  0  0  0  0  0  0  0  0  0  0  0
   11.1371   11.3895   20.5470 F   0  0  0  0  0  0  0  0  0  0  0  0
    9.0817    5.1740   24.2201 C   0  0  0  0  0  0  0  0  0  0  0  0
    3.7269    6.3060   19.0917 F   0  0  0  0  0  0  0  0  0  0  0  0
    5.2481    8.3017   19.8437 C   0  0  0  0  0  0  0  0  0  0  0  0
    5.9161    7.5278   19.2584 O   0  0  0  0  0  0  0  0  0  0  0  0
    8.5611    7.8869   23.5146 P   0  0  0  0  0  0  0  0  0  0  0  0
   10.3141   10.4489   20.1416 He  0  0  0  0  0  0  0  0  0  0  0  0
   13.1036    9.5042   18.1870 He  0  0  0  0  0  0  0  0  0  0  0  0
   10.4151    5.0810   21.1996 He  0  0  0  0  0  0  0  0  0  0  0  0
    8.7244    5.9725   22.4415 He  0  0  0  0  0  0  0  0  0  0  0  0
  1  6  3  0
  1 17  3  0
  1 21  1  0
  2  7  1  0
  2 11  4  0
  2 12  3  0
  2 19  1  0
  2 23  1  0
  3 13  2  0
  3 16  2  0
  3 20  2  0
  3 24  2  0
  4  5  4  0
  4  7  1  0
  4 19  4  0
  5  6  1  0
  5 20  3  0
  5 21  3  0
  5 23  3  0
  6  9  2  0
  6 11  1  0
  6 13  1  0
  6 15  3  0
  6 16  4  0
  6 17  4  0
  7 17  4  0
  7 22  2  0
  8 11  4  0
  8 14  4  0
  8 15  1  0
  8 17  1  0
  8 23  4  0
  8 24  3  0
  9 15  2  0
  9 17  1  0
 10 15  3  0
 10 17  1  0
 10 22  4  0
 11 14  3  0
 11 19  1  0
 11 21  4  0
 11 24  3  0
 12 20  1  0
 12 21  4  0
 12 23  2  0
 13 18  4  0
 13 22  1  0
 13 23  4  0
 14 22  1  0
 14 23  4  0
 15 19  1  0
 15 22  2  0
 16 17  2  0
 16 22  2  0
 17 22  4  0
 17 24  4  0
 18 22  3  0
 19 20  2  0
 19 23  2  0
 19 24  2  0
 20 21  4  0
 21 23  3  0
 22 24  3  0
M  END
$$$$

 Created by Python create_sdf_string function

 28 28  0  0  0  0  0  0  0  0999 V2000
    9.6037   10.0855   19.6597 C   0  0  0  0  0  0  0  0  0  0  0  0
    3.6308    7.2911   19.1402 C   0  0  0  0  0  0  0  0  0  0  0  0
   11.9206   10.0768   19.2641 C   0  0  0  0  0  0  0  0  0  0  0  0
   10.3161    3.9735   22.9965 C   0  0  0  0  0  0  0  0  0  0  0  0
   11.1691   11.1510   20.6066 C   0  0  0  0  0  0  0  0  0  0  0  0
    7.0768   11.0989   21.0550 N   0  0  0  0  0  0  0  0  0  0  0  0
    7.5141    7.5100   20.9987 C   0  0  0  0  0  0  0  0  0  0  0  0
    9.9992   10.9436   20.7096 C   0  0  0  0  0  0  0  0  0  0  0  0
    2.1242    6.8990   18.8067 F   0  0  0  0  0  0  0  0  0  0  0  0
    8.1629   11.7179   22.6887 O   0  0  0  0  0  0  0  0  0  0  0  0
    4.0896    8.4973   19.4708 C   0  0  0  0  0  0  0  0  0  0  0  0
   10.7045    9.5779   18.9901 C   0  0  0  0  0  0  0  0  0  0  0  0
    9.0214    4.3711   23.9506 C   0  0  0  0  0  0  0  0  0  0  0  0
   13.1130    9.7331   18.5636 C   0  0  0  0  0  0  0  0  0  0  0  0
    6.1960    7.5328   20.1393 C   0  0  0  0  0  0  0  0  0  0  0  0
    7.9683    9.8704   22.2688 C   0  0  0  0  0  0  0  0  0  0  0  0
    9.5759    5.6535   21.3160 C   0  0  0  0  0  0  0  0  0  0  0  0
    8.2740   10.8856   21.9055 S   0  0  0  0  0  0  0  0  0  0  0  0
    8.4349    6.5472   20.8762 C   0  0  0  0  0  0  0  0  0  0  0  0
    7.9263    8.4014   22.1088 C   0  0  0  0  0  0  0  0  0  0  0  0
   10.0886    4.8152   22.4063 C   0  0  0  0  0  0  0  0  0  0  0  0
    8.8595    6.4240   22.9068 C   0  0  0  0  0  0  0  0  0  0  0  0
   11.7056   11.1946   20.4685 C   0  0  0  0  0  0  0  0  0  0  0  0
    8.8235    5.1285   24.0568 C   0  0  0  0  0  0  0  0  0  0  0  0
    4.5072    6.3971   19.0539 C   0  0  0  0  0  0  0  0  0  0  0  0
    5.3435    8.5543   19.9850 C   0  0  0  0  0  0  0  0  0  0  0  0
    5.7043    6.5203   19.4902 C   0  0  0  0  0  0  0  0  0  0  0  0
    8.5625    7.6400   23.1382 N   0  0  0  0  0  0  0  0  0  0  0  0
  1  8  4  0
  1 12  4  0
  2  9  1  0
  2 11  4  0
  2 25  4  0
  3 12  4  0
  3 14  1  0
  3 23  4  0
  4 21  1  0
  5  8  4  0
  5 23  4  0
  6 18  1  0
  7 15  1  0
  7 19  4  0
  7 20  4  0
  8 18  1  0
 10 18  2  0
 11 26  4  0
 13 24  1  0
 15 26  4  0
 15 27  4  0
 16 18  1  0
 16 20  1  0
 17 19  4  0
 17 21  1  0
 20 28  4  0
 22 28  4  0
 25 27  4  0
M  END
$$$$

 Created by Python create_sdf_string function

 28 58  0  0  0  0  0  0  0  0999 V2000
    9.3851   10.6471   19.6683 C   0  0  0  0  0  0  0  0  0  0  0  0
   11.9416    9.1596   20.0746 C   0  0  0  0  0  0  0  0  0  0  0  0
    9.8184    3.6381   23.4846 C   0  0  0  0  0  0  0  0  0  0  0  0
   11.2411   10.9375   20.8251 C   0  0  0  0  0  0  0  0  0  0  0  0
    6.5536   10.7436   21.1028 N   0  0  0  0  0  0  0  0  0  0  0  0
    7.9503    7.7129   20.5351 C   0  0  0  0  0  0  0  0  0  0  0  0
   10.8130   11.0487   20.4977 S   0  0  0  0  0  0  0  0  0  0  0  0
    1.1272    7.5239   19.3483 F   0  0  0  0  0  0  0  0  0  0  0  0
    8.5521   11.1674   22.6839 S   0  0  0  0  0  0  0  0  0  0  0  0
    3.3951    7.8158   20.0569 C   0  0  0  0  0  0  0  0  0  0  0  0
   10.4465   10.2251   19.1612 N   0  0  0  0  0  0  0  0  0  0  0  0
    6.0858    7.5264   19.4811 C   0  0  0  0  0  0  0  0  0  0  0  0
    9.5252    4.9800   19.8313 C   0  0  0  0  0  0  0  0  0  0  0  0
    7.7494   10.9689   21.8181 C   0  0  0  0  0  0  0  0  0  0  0  0
    7.3302    6.1453   21.2863 C   0  0  0  0  0  0  0  0  0  0  0  0
    7.9088    9.5730   22.7207 I   0  0  0  0  0  0  0  0  0  0  0  0
    9.9560    4.9807   21.4975 C   0  0  0  0  0  0  0  0  0  0  0  0
    8.4881    5.7675   23.0154 C   0  0  0  0  0  0  0  0  0  0  0  0
   12.0368   11.0820   20.8127 C   0  0  0  0  0  0  0  0  0  0  0  0
    8.0328    4.2666   23.9411 C   0  0  0  0  0  0  0  0  0  0  0  0
    4.0440    5.6612   19.4977 C   0  0  0  0  0  0  0  0  0  0  0  0
    5.3740    8.0052   20.0811 N   0  0  0  0  0  0  0  0  0  0  0  0
    5.7090    7.1653   19.3935 C   0  0  0  0  0  0  0  0  0  0  0  0
    3.4045    6.5716   18.8774 He  0  0  0  0  0  0  0  0  0  0  0  0
    9.6723    4.6394   23.3790 He  0  0  0  0  0  0  0  0  0  0  0  0
   13.0166   10.5848   18.8914 He  0  0  0  0  0  0  0  0  0  0  0  0
    7.4031    9.4664   22.8695 He  0  0  0  0  0  0  0  0  0  0  0  0
    9.0001    7.9531   23.2640 He  0  0  0  0  0  0  0  0  0  0  0  0
  1  7  4  0
  1 16  2  0
  1 21  1  0
  2  3  1  0
  2  4  4  0
  2  6  4  0
  2  7  3  0
  2  9  3  0
  2 11  2  0
  2 18  3  0
  2 19  4  0
  2 22  2  0
  3  6  4  0
  3  8  1  0
  3 11  1  0
  3 16  2  0
  3 17  1  0
  3 20  1  0
  3 21  4  0
  4  7  4  0
  4 12  4  0
  4 22  1  0
  5 14  1  0
  5 20  3  0
  6 10  4  0
  6 12  1  0
  6 13  3  0
  6 16  2  0
  6 21  2  0
  7 13  3  0
  7 14  4  0
  7 15  3  0
  7 16  4  0
  7 19  1  0
  8  9  2  0
  8 17  3  0
  8 19  4  0
  8 22  2  0
  8 23  4  0
  9 10  3  0
  9 21  4  0
 10 18  3  0
 11 16  4  0
 11 19  4  0
 12 13  2  0
 12 15  2  0
 12 22  4  0
 12 23  4  0
 13 15  4  0
 13 17  2  0
 13 19  1  0
 13 23  2  0
 14 15  3  0
 14 20  4  0
 14 23  4  0
 15 23  3  0
 19 20  2  0
 19 22  3  0
M  END
$$$$

 Created by Python create_sdf_string function

 28 31  0  0  0  0  0  0  0  0999 V2000
    9.6498   10.5743   19.6236 C   0  0  0  0  0  0  0  0  0  0  0  0
    3.3019    7.0301   19.3914 C   0  0  0  0  0  0  0  0  0  0  0  0
   12.1661   10.0735   19.7474 C   0  0  0  0  0  0  0  0  0  0  0  0
    9.6500    3.9868   22.9047 C   0  0  0  0  0  0  0  0  0  0  0  0
   11.2468   10.9017   21.1782 C   0  0  0  0  0  0  0  0  0  0  0  0
    6.9334   10.7958   21.2467 N   0  0  0  0  0  0  0  0  0  0  0  0
    7.2896    7.4700   20.6252 C   0  0  0  0  0  0  0  0  0  0  0  0
   10.1097   10.9674   20.9239 C   0  0  0  0  0  0  0  0  0  0  0  0
    1.7539    6.8898   19.1514 F   0  0  0  0  0  0  0  0  0  0  0  0
    8.6830   11.3846   22.3979 O   0  0  0  0  0  0  0  0  0  0  0  0
    3.7512    8.2243   19.7739 C   0  0  0  0  0  0  0  0  0  0  0  0
   10.7983   10.2009   18.8576 N   0  0  0  0  0  0  0  0  0  0  0  0
    9.0119    5.0134   23.1818 C   0  0  0  0  0  0  0  0  0  0  0  0
   12.9887    9.8369   18.9459 C   0  0  0  0  0  0  0  0  0  0  0  0
    5.9161    7.3617   19.9760 C   0  0  0  0  0  0  0  0  0  0  0  0
    7.7696    9.3158   22.2903 C   0  0  0  0  0  0  0  0  0  0  0  0
    8.9918    5.5948   20.6636 C   0  0  0  0  0  0  0  0  0  0  0  0
    7.8193   10.7395   21.7295 C   0  0  0  0  0  0  0  0  0  0  0  0
    8.1712    6.5037   21.2863 C   0  0  0  0  0  0  0  0  0  0  0  0
    7.7133    8.7552   22.0395 N   0  0  0  0  0  0  0  0  0  0  0  0
    9.6856    4.6597   21.2318 C   0  0  0  0  0  0  0  0  0  0  0  0
    8.4700    6.3685   22.7291 C   0  0  0  0  0  0  0  0  0  0  0  0
   12.1775   10.6649   20.9372 C   0  0  0  0  0  0  0  0  0  0  0  0
    8.4764    4.2635   23.9441 C   0  0  0  0  0  0  0  0  0  0  0  0
    4.1967    6.0635   19.1247 C   0  0  0  0  0  0  0  0  0  0  0  0
    5.0080    8.3807   20.0671 C   0  0  0  0  0  0  0  0  0  0  0  0
    5.4025    6.2624   19.3857 C   0  0  0  0  0  0  0  0  0  0  0  0
    8.6242    7.8506   23.3552 O   0  0  0  0  0  0  0  0  0  0  0  0
  1  8  4  0
  1 12  4  0
  2  9  1  0
  2 11  4  0
  2 25  4  0
  3 12  4  0
  3 14  1  0
  3 23  4  0
  4 13  1  0
  4 21  4  0
  4 24  1  0
  5  8  4  0
  5 23  4  0
  6 18  1  0
  7 15  1  0
  7 19  1  0
  7 20  1  0
  8 10  1  0
 10 18  1  0
 11 26  4  0
 13 22  4  0
 13 24  1  0
 15 26  4  0
 15 27  4  0
 16 18  1  0
 16 20  1  0
 17 19  4  0
 17 21  4  0
 19 22  4  0
 22 28  4  0
 25 27  4  0
M  END
$$$$

 Created by Python create_sdf_string function

 28 39  0  0  0  0  0  0  0  0999 V2000
    9.9086    9.6350   19.2947 C   0  0  0  0  0  0  0  0  0  0  0  0
   12.2204   10.0649   20.2704 O   0  0  0  0  0  0  0  0  0  0  0  0
    6.5870    8.6066   20.4292 F   0  0  0  0  0  0  0  0  0  0  0  0
    1.9219    7.1078   18.8841 Br  0  0  0  0  0  0  0  0  0  0  0  0
    8.2728   10.3082   22.6133 C   0  0  0  0  0  0  0  0  0  0  0  0
    3.8630    8.7792   19.6704 S   0  0  0  0  0  0  0  0  0  0  0  0
   10.6202    9.8183   19.5491 N   0  0  0  0  0  0  0  0  0  0  0  0
    8.5590    3.8182   23.6387 C   0  0  0  0  0  0  0  0  0  0  0  0
   12.6708    9.7376   18.3729 C   0  0  0  0  0  0  0  0  0  0  0  0
    4.6608    6.9207   19.8353 C   0  0  0  0  0  0  0  0  0  0  0  0
    9.5771    5.4030   21.1968 C   0  0  0  0  0  0  0  0  0  0  0  0
    7.5785    9.8662   22.6002 C   0  0  0  0  0  0  0  0  0  0  0  0
    8.0628    8.0330   22.6079 N   0  0  0  0  0  0  0  0  0  0  0  0
    9.4222    5.0616   21.5681 C   0  0  0  0  0  0  0  0  0  0  0  0
    8.1795    6.8300   23.0534 C   0  0  0  0  0  0  0  0  0  0  0  0
   12.1008   11.0683   20.9047 C   0  0  0  0  0  0  0  0  0  0  0  0
    9.1675    3.5998   24.5759 O   0  0  0  0  0  0  0  0  0  0  0  0
    4.1064    6.9765   18.6767 C   0  0  0  0  0  0  0  0  0  0  0  0
    3.8696    8.5995   19.6172 C   0  0  0  0  0  0  0  0  0  0  0  0
    8.3078    8.3823   24.4710 O   0  0  0  0  0  0  0  0  0  0  0  0
    3.1604    7.6233   19.5510 He  0  0  0  0  0  0  0  0  0  0  0  0
    9.4492    3.4081   23.0403 He  0  0  0  0  0  0  0  0  0  0  0  0
   11.2363   11.3736   21.4609 He  0  0  0  0  0  0  0  0  0  0  0  0
    7.6896   11.0243   21.3733 He  0  0  0  0  0  0  0  0  0  0  0  0
    9.1643   11.0571   20.7553 He  0  0  0  0  0  0  0  0  0  0  0  0
    8.0635    9.4976   21.2772 He  0  0  0  0  0  0  0  0  0  0  0  0
    8.4897    6.8461   21.7132 He  0  0  0  0  0  0  0  0  0  0  0  0
    5.2530    6.4685   19.9379 He  0  0  0  0  0  0  0  0  0  0  0  0
  1  8  3  0
  1 17  3  0
  2  7  4  0
  2  9  1  0
  2 10  1  0
  2 13  4  0
  2 16  4  0
  3  5  2  0
  3  7  2  0
  3  9  4  0
  3 13  1  0
  4 11  3  0
  4 12  1  0
  5 11  3  0
  5 12  1  0
  5 15  3  0
  6  9  4  0
  6 11  4  0
  6 14  4  0
  6 20  2  0
  7 13  4  0
  7 15  1  0
  7 19  4  0
  8  9  4  0
  8 16  2  0
  8 18  1  0
  8 19  4  0
  9 18  1  0
 10 17  2  0
 10 19  4  0
 11 14  4  0
 12 18  4  0
 12 19  2  0
 15 19  4  0
 15 20  4  0
 16 17  4  0
 16 18  4  0
 16 20  2  0
 17 20  1  0
M  END
$$$$

 Created by Python create_sdf_string function

 28 29  0  0  0  0  0  0  0  0999 V2000
    9.7140    9.9327   19.9014 C   0  0  0  0  0  0  0  0  0  0  0  0
    3.1245    7.3778   19.2705 C   0  0  0  0  0  0  0  0  0  0  0  0
   11.9701   10.2123   19.6341 C   0  0  0  0  0  0  0  0  0  0  0  0
    9.2420    4.0665   23.0489 C   0  0  0  0  0  0  0  0  0  0  0  0
   10.9326   11.2109   21.5279 C   0  0  0  0  0  0  0  0  0  0  0  0
    7.0704   10.8913   21.3377 O   0  0  0  0  0  0  0  0  0  0  0  0
    6.8446    8.1910   20.6525 C   0  0  0  0  0  0  0  0  0  0  0  0
    9.7391   10.6218   21.1539 C   0  0  0  0  0  0  0  0  0  0  0  0
    1.5146    7.2504   18.9303 Br  0  0  0  0  0  0  0  0  0  0  0  0
    8.6566   10.6797   22.1482 C   0  0  0  0  0  0  0  0  0  0  0  0
    3.7914    8.5572   19.6337 C   0  0  0  0  0  0  0  0  0  0  0  0
   10.7534    9.6840   19.2242 C   0  0  0  0  0  0  0  0  0  0  0  0
    8.6542    4.6819   23.6505 C   0  0  0  0  0  0  0  0  0  0  0  0
   13.2042    9.9269   18.7216 C   0  0  0  0  0  0  0  0  0  0  0  0
    5.3171    7.7596   20.0933 C   0  0  0  0  0  0  0  0  0  0  0  0
    7.5413    8.9031   21.4763 N   0  0  0  0  0  0  0  0  0  0  0  0
    9.1731    5.8631   21.3755 C   0  0  0  0  0  0  0  0  0  0  0  0
    7.7045   10.1907   22.3404 C   0  0  0  0  0  0  0  0  0  0  0  0
    8.4673    6.5262   22.2848 C   0  0  0  0  0  0  0  0  0  0  0  0
    8.0517    7.9824   22.2288 N   0  0  0  0  0  0  0  0  0  0  0  0
    9.5585    4.6908   21.7278 C   0  0  0  0  0  0  0  0  0  0  0  0
    8.1335    6.0108   23.5095 C   0  0  0  0  0  0  0  0  0  0  0  0
   12.0246   10.9774   20.7663 C   0  0  0  0  0  0  0  0  0  0  0  0
    9.3834    3.1724   24.0872 O   0  0  0  0  0  0  0  0  0  0  0  0
    3.8945    6.4354   19.2111 C   0  0  0  0  0  0  0  0  0  0  0  0
    4.4311    8.6453   19.9408 C   0  0  0  0  0  0  0  0  0  0  0  0
    5.0210    6.6559   19.6175 C   0  0  0  0  0  0  0  0  0  0  0  0
    8.1252    8.7710   23.8434 O   0  0  0  0  0  0  0  0  0  0  0  0
  1  8  4  0
  1 12  4  0
  2  9  1  0
  2 11  4  0
  2 25  4  0
  3 12  4  0
  3 14  1  0
  3 23  4  0
  4 13  4  0
  4 21  4  0
  4 24  1  0
  5  8  4  0
  5 23  4  0
  6 18  1  0
  7 15  1  0
  7 16  1  0
  8 10  1  0
 10 18  1  0
 11 26  4  0
 13 22  4  0
 15 26  4  0
 15 27  4  0
 16 18  1  0
 16 20  1  0
 17 19  4  0
 17 21  4  0
 19 20  1  0
 19 22  4  0
 25 27  4  0
M  END
$$$$

 Created by Python create_sdf_string function

 28 69  0  0  0  0  0  0  0  0999 V2000
    1.8798    7.5493   20.3724 C   0  0  0  0  0  0  0  0  0  0  0  0
   11.4269    9.3106   19.5748 C   0  0  0  0  0  0  0  0  0  0  0  0
    9.6116    4.6092   22.3887 C   0  0  0  0  0  0  0  0  0  0  0  0
   10.6959   11.5896   21.5256 C   0  0  0  0  0  0  0  0  0  0  0  0
    7.1040   11.5597   20.9387 B   0  0  0  0  0  0  0  0  0  0  0  0
    6.5367    7.6115   20.6191 C   0  0  0  0  0  0  0  0  0  0  0  0
    1.9294    7.3243   19.0139 S   0  0  0  0  0  0  0  0  0  0  0  0
    3.8285    8.1982   19.1567 C   0  0  0  0  0  0  0  0  0  0  0  0
   10.8115   10.1829   19.0400 C   0  0  0  0  0  0  0  0  0  0  0  0
   12.9647    9.1179   18.6497 C   0  0  0  0  0  0  0  0  0  0  0  0
    4.6793    7.8032   19.8048 C   0  0  0  0  0  0  0  0  0  0  0  0
    6.9628    7.0540   21.5305 O   0  0  0  0  0  0  0  0  0  0  0  0
    8.7785    5.4115   21.2082 B   0  0  0  0  0  0  0  0  0  0  0  0
    8.2688   10.9152   22.7898 O   0  0  0  0  0  0  0  0  0  0  0  0
    7.9109    6.2874   21.8076 C   0  0  0  0  0  0  0  0  0  0  0  0
    8.1923    8.0405   22.4418 N   0  0  0  0  0  0  0  0  0  0  0  0
   10.2419    4.0327   21.2560 C   0  0  0  0  0  0  0  0  0  0  0  0
    8.6370    4.7825   24.4370 P   0  0  0  0  0  0  0  0  0  0  0  0
   11.8009    9.9597   20.7087 C   0  0  0  0  0  0  0  0  0  0  0  0
    9.0247    3.2854   24.3879 P   0  0  0  0  0  0  0  0  0  0  0  0
    3.9315    6.2034   19.4264 C   0  0  0  0  0  0  0  0  0  0  0  0
    4.6746    8.3241   19.5056 C   0  0  0  0  0  0  0  0  0  0  0  0
    8.0327    8.8523   24.9599 O   0  0  0  0  0  0  0  0  0  0  0  0
    9.9797   10.0122   18.8322 He  0  0  0  0  0  0  0  0  0  0  0  0
    9.5110   11.0679   20.9322 He  0  0  0  0  0  0  0  0  0  0  0  0
    8.4624   10.0672   22.6935 He  0  0  0  0  0  0  0  0  0  0  0  0
    8.2790    4.5448   23.5678 He  0  0  0  0  0  0  0  0  0  0  0  0
    5.0078    6.8184   20.2709 He  0  0  0  0  0  0  0  0  0  0  0  0
  1  3  1  0
  1  7  4  0
  1  8  4  0
  1  9  4  0
  1 16  3  0
  2  8  1  0
  2 10  3  0
  2 15  3  0
  2 19  4  0
  3  5  4  0
  3 20  1  0
  3 22  1  0
  4  7  2  0
  4  8  2  0
  4 11  1  0
  4 12  3  0
  4 18  4  0
  4 19  4  0
  5 11  4  0
  5 14  2  0
  5 15  2  0
  5 23  4  0
  6  9  2  0
  6 11  4  0
  6 12  1  0
  6 16  4  0
  6 17  4  0
  6 18  4  0
  6 19  3  0
  7 11  1  0
  7 13  1  0
  7 15  4  0
  7 21  3  0
  7 23  3  0
  8  9  3  0
  8 15  2  0
  8 16  1  0
  8 18  3  0
  8 22  4  0
  9 11  2  0
  9 12  2  0
  9 15  2  0
  9 16  1  0
 10 13  2  0
 10 15  3  0
 10 23  4  0
 11 14  3  0
 11 18  1  0
 11 23  4  0
 12 13  3  0
 12 14  1  0
 12 21  2  0
 12 22  3  0
 13 16  3  0
 13 17  1  0
 13 18  4  0
 13 19  1  0
 13 20  4  0
 14 15  2  0
 14 17  3  0
 14 20  3  0
 15 16  1  0
 15 21  4  0
 16 22  2  0
 17 19  3  0
 17 21  4  0
 17 23  4  0
 19 20  4  0
 19 21  2  0
M  END
$$$$

 Created by Python create_sdf_string function

 28 26  0  0  0  0  0  0  0  0999 V2000
    9.4560   10.4076   19.4827 C   0  0  0  0  0  0  0  0  0  0  0  0
    2.6328    7.4310   19.3960 C   0  0  0  0  0  0  0  0  0  0  0  0
   11.7583    9.8089   19.5195 C   0  0  0  0  0  0  0  0  0  0  0  0
    9.3975    4.3183   22.5628 C   0  0  0  0  0  0  0  0  0  0  0  0
   10.7751   10.6057   21.5234 C   0  0  0  0  0  0  0  0  0  0  0  0
    7.4816   11.3924   21.1116 O   0  0  0  0  0  0  0  0  0  0  0  0
    6.7991    7.8255   20.9019 C   0  0  0  0  0  0  0  0  0  0  0  0
    9.5594   10.6460   20.8308 C   0  0  0  0  0  0  0  0  0  0  0  0
    1.3101    7.3075   19.1721 C   0  0  0  0  0  0  0  0  0  0  0  0
    8.2348    9.8507   22.6836 S   0  0  0  0  0  0  0  0  0  0  0  0
    3.2329    8.6710   19.5235 C   0  0  0  0  0  0  0  0  0  0  0  0
   10.5732    9.9838   18.8756 C   0  0  0  0  0  0  0  0  0  0  0  0
    8.6442    4.8705   23.5866 C   0  0  0  0  0  0  0  0  0  0  0  0
   12.9668    9.2872   18.8636 C   0  0  0  0  0  0  0  0  0  0  0  0
    5.0581    7.6926   20.1156 C   0  0  0  0  0  0  0  0  0  0  0  0
    6.8436    7.1589   21.3295 O   0  0  0  0  0  0  0  0  0  0  0  0
    8.8638    5.7254   21.6995 C   0  0  0  0  0  0  0  0  0  0  0  0
    8.0548   10.6782   22.6792 O   0  0  0  0  0  0  0  0  0  0  0  0
    8.1978    6.5532   22.0247 C   0  0  0  0  0  0  0  0  0  0  0  0
    8.1309    8.0380   22.0033 N   0  0  0  0  0  0  0  0  0  0  0  0
    9.8620    4.3353   21.3306 C   0  0  0  0  0  0  0  0  0  0  0  0
    8.4261    5.4152   23.7295 C   0  0  0  0  0  0  0  0  0  0  0  0
   11.8774   10.2113   20.8208 C   0  0  0  0  0  0  0  0  0  0  0  0
    9.4327    3.1851   23.9672 C   0  0  0  0  0  0  0  0  0  0  0  0
    3.5077    6.2654   19.5081 C   0  0  0  0  0  0  0  0  0  0  0  0
    4.4393    8.8099   19.8183 C   0  0  0  0  0  0  0  0  0  0  0  0
    4.5904    6.4546   19.8942 C   0  0  0  0  0  0  0  0  0  0  0  0
    8.2914    9.2423   24.1370 O   0  0  0  0  0  0  0  0  0  0  0  0
  1  8  4  0
  1 12  4  0
  2  9  1  0
  2 11  4  0
  2 25  4  0
  3 12  4  0
  3 14  1  0
  3 23  4  0
  4 13  4  0
  4 21  4  0
  4 24  1  0
  5  8  4  0
  5 23  4  0
  7 15  1  0
  7 16  1  0
 10 18  1  0
 10 20  1  0
 10 28  2  0
 11 26  4  0
 13 22  4  0
 15 26  4  0
 15 27  4  0
 17 19  4  0
 17 21  4  0
 19 20  1  0
 25 27  4  0
M  END
$$$$

 Created by Python create_sdf_string function

 28 56  0  0  0  0  0  0  0  0999 V2000
    9.5085   11.2760   19.3772 C   0  0  0  0  0  0  0  0  0  0  0  0
    9.1354    4.7906   21.7870 F   0  0  0  0  0  0  0  0  0  0  0  0
   10.3872   10.0546   21.4412 C   0  0  0  0  0  0  0  0  0  0  0  0
    7.5218   11.7401   20.9387 O   0  0  0  0  0  0  0  0  0  0  0  0
    6.3616    7.4852   20.7056 C   0  0  0  0  0  0  0  0  0  0  0  0
    9.6828   10.7147   20.7919 C   0  0  0  0  0  0  0  0  0  0  0  0
    1.7464    7.5123   19.3213 C   0  0  0  0  0  0  0  0  0  0  0  0
    7.1606    9.4666   22.1768 C   0  0  0  0  0  0  0  0  0  0  0  0
    3.4460    8.3942   20.0704 C   0  0  0  0  0  0  0  0  0  0  0  0
    8.7899    4.8898   22.9458 C   0  0  0  0  0  0  0  0  0  0  0  0
   12.8820    8.7311   18.9457 C   0  0  0  0  0  0  0  0  0  0  0  0
    5.4501    8.0564   19.9145 C   0  0  0  0  0  0  0  0  0  0  0  0
    8.4410    4.8190   21.9365 C   0  0  0  0  0  0  0  0  0  0  0  0
    7.6919   10.9175   22.1228 O   0  0  0  0  0  0  0  0  0  0  0  0
    8.8605    6.3861   22.2305 C   0  0  0  0  0  0  0  0  0  0  0  0
    8.3274    8.9208   22.7001 C   0  0  0  0  0  0  0  0  0  0  0  0
   10.0540    4.2963   21.0579 C   0  0  0  0  0  0  0  0  0  0  0  0
    8.1777    5.6497   23.4302 C   0  0  0  0  0  0  0  0  0  0  0  0
   12.0021   10.6160   21.0802 C   0  0  0  0  0  0  0  0  0  0  0  0
   10.1478    2.7664   23.6159 C   0  0  0  0  0  0  0  0  0  0  0  0
    3.1083    7.3159   18.9149 C   0  0  0  0  0  0  0  0  0  0  0  0
    5.1164    9.3780   19.8047 C   0  0  0  0  0  0  0  0  0  0  0  0
    8.7667    8.5924   24.3934 O   0  0  0  0  0  0  0  0  0  0  0  0
    2.6685    7.1776   19.8528 He  0  0  0  0  0  0  0  0  0  0  0  0
   11.5254    9.5886   18.6371 He  0  0  0  0  0  0  0  0  0  0  0  0
   10.7386   10.7909   19.0541 He  0  0  0  0  0  0  0  0  0  0  0  0
    7.0588    6.8354   21.8983 He  0  0  0  0  0  0  0  0  0  0  0  0
    5.1811    6.8633   20.6873 He  0  0  0  0  0  0  0  0  0  0  0  0
  1  6  4  0
  1 23  4  0
  2 10  4  0
  2 13  4  0
  2 17  4  0
  2 20  1  0
  3  4  2  0
  3  5  1  0
  3  6  4  0
  3 12  4  0
  3 19  1  0
  3 21  3  0
  4  7  2  0
  4 10  1  0
  4 19  4  0
  5  6  4  0
  5 12  1  0
  5 14  1  0
  5 15  4  0
  5 16  2  0
  5 17  1  0
  6  8  4  0
  6 10  2  0
  6 11  4  0
  6 12  3  0
  6 20  4  0
  7  8  4  0
  7 20  3  0
  7 21  4  0
  7 22  1  0
  8  9  3  0
  8 10  4  0
  8 14  1  0
  8 21  1  0
  9 19  3  0
  9 21  3  0
 10 18  4  0
 10 21  3  0
 10 23  4  0
 11 17  3  0
 11 21  1  0
 12 14  3  0
 12 23  3  0
 13 15  4  0
 13 20  3  0
 14 17  4  0
 14 19  1  0
 15 16  1  0
 15 18  1  0
 15 19  3  0
 16 22  4  0
 17 19  2  0
 17 22  2  0
 19 23  4  0
 21 22  1  0
 21 23  3  0
M  END
$$$$

 Created by Python create_sdf_string function

 28 31  0  0  0  0  0  0  0  0999 V2000
    9.5443   10.9729   19.5947 C   0  0  0  0  0  0  0  0  0  0  0  0
    2.9253    7.8112   19.5891 C   0  0  0  0  0  0  0  0  0  0  0  0
   11.7247    9.9762   19.4935 C   0  0  0  0  0  0  0  0  0  0  0  0
    9.5722    4.0601   22.5245 C   0  0  0  0  0  0  0  0  0  0  0  0
   10.6368   10.2264   21.4983 C   0  0  0  0  0  0  0  0  0  0  0  0
    7.3157   11.7754   21.0925 O   0  0  0  0  0  0  0  0  0  0  0  0
    6.6924    8.0111   21.0048 C   0  0  0  0  0  0  0  0  0  0  0  0
    9.4738   10.6680   20.9161 C   0  0  0  0  0  0  0  0  0  0  0  0
    1.6698    7.4874   19.1971 C   0  0  0  0  0  0  0  0  0  0  0  0
    7.5557    9.3612   21.8677 N   0  0  0  0  0  0  0  0  0  0  0  0
    3.5613    9.0771   19.6518 C   0  0  0  0  0  0  0  0  0  0  0  0
   10.6928   10.6488   18.8818 C   0  0  0  0  0  0  0  0  0  0  0  0
    9.0352    4.7613   23.5351 C   0  0  0  0  0  0  0  0  0  0  0  0
   12.8412    9.3297   18.8319 C   0  0  0  0  0  0  0  0  0  0  0  0
    5.4238    7.9427   20.3786 C   0  0  0  0  0  0  0  0  0  0  0  0
    6.8899    7.0131   21.6735 N   0  0  0  0  0  0  0  0  0  0  0  0
    8.7659    5.8027   21.0525 C   0  0  0  0  0  0  0  0  0  0  0  0
    8.0876   10.5711   21.6843 C   0  0  0  0  0  0  0  0  0  0  0  0
    8.3848    6.5572   22.3173 C   0  0  0  0  0  0  0  0  0  0  0  0
    8.1919    8.4094   22.6817 C   0  0  0  0  0  0  0  0  0  0  0  0
    9.5423    4.5704   21.2391 C   0  0  0  0  0  0  0  0  0  0  0  0
    8.5536    5.7640   23.4193 C   0  0  0  0  0  0  0  0  0  0  0  0
   11.7506    9.8882   20.8193 C   0  0  0  0  0  0  0  0  0  0  0  0
   10.0670    2.8731   23.2366 C   0  0  0  0  0  0  0  0  0  0  0  0
    3.5407    6.7600   19.7645 C   0  0  0  0  0  0  0  0  0  0  0  0
    4.8183    9.1244   19.9395 C   0  0  0  0  0  0  0  0  0  0  0  0
    4.7320    6.8137   20.0966 C   0  0  0  0  0  0  0  0  0  0  0  0
    8.6564    8.7226   23.8811 O   0  0  0  0  0  0  0  0  0  0  0  0
  1  8  4  0
  1 12  4  0
  2  9  1  0
  2 11  4  0
  2 25  4  0
  3 12  4  0
  3 14  1  0
  3 23  4  0
  4 13  4  0
  4 21  4  0
  4 24  1  0
  5  8  4  0
  5 23  4  0
  6 18  2  0
  7 10  1  0
  7 15  1  0
  7 16  1  0
  8 18  1  0
 10 18  1  0
 10 20  1  0
 11 26  4  0
 13 22  4  0
 15 26  4  0
 15 27  4  0
 16 19  1  0
 17 19  4  0
 17 21  4  0
 19 20  1  0
 19 22  4  0
 20 28  2  0
 25 27  4  0
M  END
$$$$

 Created by Python create_sdf_string function

 28 39  0  0  0  0  0  0  0  0999 V2000
    9.6504   10.3522   19.0324 O   0  0  0  0  0  0  0  0  0  0  0  0
   11.6299    9.9651   19.1943 C   0  0  0  0  0  0  0  0  0  0  0  0
   10.5201   10.2453   21.2997 C   0  0  0  0  0  0  0  0  0  0  0  0
    7.7127   11.7052   20.4444 C   0  0  0  0  0  0  0  0  0  0  0  0
    6.5412    9.0660   21.4616 C   0  0  0  0  0  0  0  0  0  0  0  0
    9.3307   11.4347   20.3646 C   0  0  0  0  0  0  0  0  0  0  0  0
    2.1180    8.0319   20.1069 C   0  0  0  0  0  0  0  0  0  0  0  0
    7.4003    8.6921   21.6718 N   0  0  0  0  0  0  0  0  0  0  0  0
    4.0892    8.7281   20.4125 I   0  0  0  0  0  0  0  0  0  0  0  0
   10.8662   10.5356   18.3674 C   0  0  0  0  0  0  0  0  0  0  0  0
    9.0248    4.4585   23.3161 C   0  0  0  0  0  0  0  0  0  0  0  0
   13.3227    8.3954   19.2835 C   0  0  0  0  0  0  0  0  0  0  0  0
    5.4843    8.0938   20.2394 C   0  0  0  0  0  0  0  0  0  0  0  0
    7.1326    7.5242   22.0549 F   0  0  0  0  0  0  0  0  0  0  0  0
    8.2790   10.5698   21.9162 C   0  0  0  0  0  0  0  0  0  0  0  0
    9.1594    8.1788   22.7116 C   0  0  0  0  0  0  0  0  0  0  0  0
   11.4103    9.9367   20.2715 C   0  0  0  0  0  0  0  0  0  0  0  0
    9.8721    3.0599   23.4679 Se  0  0  0  0  0  0  0  0  0  0  0  0
    4.4066   10.1364   19.8367 C   0  0  0  0  0  0  0  0  0  0  0  0
    4.4788    6.5051   19.8221 O   0  0  0  0  0  0  0  0  0  0  0  0
    8.7887    8.2499   23.2924 O   0  0  0  0  0  0  0  0  0  0  0  0
    2.7962    8.2397   19.7791 He  0  0  0  0  0  0  0  0  0  0  0  0
    9.6314    3.4075   22.9570 He  0  0  0  0  0  0  0  0  0  0  0  0
    8.3297    6.2722   21.5764 He  0  0  0  0  0  0  0  0  0  0  0  0
    7.9080    6.6955   21.9825 He  0  0  0  0  0  0  0  0  0  0  0  0
    9.5146    4.2539   20.6745 He  0  0  0  0  0  0  0  0  0  0  0  0
    8.3533    5.5115   23.4140 He  0  0  0  0  0  0  0  0  0  0  0  0
    4.2355    6.5071   19.2276 He  0  0  0  0  0  0  0  0  0  0  0  0
  1  4  1  0
  1  5  1  0
  1  6  4  0
  1 10  3  0
  1 15  4  0
  2 10  4  0
  2 12  1  0
  2 13  3  0
  2 19  1  0
  3 10  2  0
  4  8  3  0
  4 15  2  0
  5  9  1  0
  5 12  1  0
  5 13  3  0
  5 14  1  0
  5 15  4  0
  5 19  3  0
  6  7  2  0
  6 15  1  0
  6 19  1  0
  7 11  2  0
  7 12  4  0
  8  9  3  0
  8 10  4  0
  8 11  2  0
  8 15  1  0
  8 17  4  0
  9 16  1  0
  9 21  1  0
 11 14  2  0
 12 16  4  0
 12 18  3  0
 12 20  2  0
 12 21  2  0
 15 17  1  0
 16 20  4  0
 16 21  2  0
 17 19  2  0
M  END
$$$$

 Created by Python create_sdf_string function

 28 31  0  0  0  0  0  0  0  0999 V2000
    9.6895   10.6944   19.2483 C   0  0  0  0  0  0  0  0  0  0  0  0
    3.1982    7.8636   19.6335 C   0  0  0  0  0  0  0  0  0  0  0  0
   11.9282    9.6472   19.2577 C   0  0  0  0  0  0  0  0  0  0  0  0
    9.4417    3.9029   22.5940 C   0  0  0  0  0  0  0  0  0  0  0  0
   10.7024   10.1457   21.2267 C   0  0  0  0  0  0  0  0  0  0  0  0
    7.5719   11.5181   20.9922 O   0  0  0  0  0  0  0  0  0  0  0  0
    6.4589    8.5076   21.2980 C   0  0  0  0  0  0  0  0  0  0  0  0
    9.5398   10.5220   20.6202 C   0  0  0  0  0  0  0  0  0  0  0  0
    1.8888    8.2673   19.5094 C   0  0  0  0  0  0  0  0  0  0  0  0
    7.8087    9.0914   21.7512 N   0  0  0  0  0  0  0  0  0  0  0  0
    4.2842    8.6996   20.0995 C   0  0  0  0  0  0  0  0  0  0  0  0
   10.8546   10.3263   18.5969 C   0  0  0  0  0  0  0  0  0  0  0  0
    8.8376    4.6457   23.5620 C   0  0  0  0  0  0  0  0  0  0  0  0
   13.1561    9.0491   18.6086 C   0  0  0  0  0  0  0  0  0  0  0  0
    5.2875    7.9330   20.4245 C   0  0  0  0  0  0  0  0  0  0  0  0
    7.3808    7.3948   22.1432 C   0  0  0  0  0  0  0  0  0  0  0  0
    8.6996    5.7775   21.1481 C   0  0  0  0  0  0  0  0  0  0  0  0
    8.2563   10.6306   21.2019 C   0  0  0  0  0  0  0  0  0  0  0  0
    8.0825    6.3728   22.1278 C   0  0  0  0  0  0  0  0  0  0  0  0
    8.3231    8.4763   22.6221 C   0  0  0  0  0  0  0  0  0  0  0  0
    9.3279    4.4700   21.3263 C   0  0  0  0  0  0  0  0  0  0  0  0
    8.1236    5.8124   23.3660 C   0  0  0  0  0  0  0  0  0  0  0  0
   11.8073    9.6577   20.6267 C   0  0  0  0  0  0  0  0  0  0  0  0
   10.1062    2.6647   23.0041 O   0  0  0  0  0  0  0  0  0  0  0  0
    3.7207    6.7287   19.5043 N   0  0  0  0  0  0  0  0  0  0  0  0
    4.1017   10.0510   19.9908 C   0  0  0  0  0  0  0  0  0  0  0  0
    5.0515    6.7833   20.0710 O   0  0  0  0  0  0  0  0  0  0  0  0
    9.0509    8.6884   23.5678 O   0  0  0  0  0  0  0  0  0  0  0  0
  1  8  4  0
  1 12  4  0
  2  9  1  0
  2 11  4  0
  2 25  4  0
  3 12  4  0
  3 14  1  0
  3 23  4  0
  4 13  4  0
  4 21  4  0
  4 24  1  0
  5  8  4  0
  5 23  4  0
  6 18  2  0
  7 10  1  0
  7 15  1  0
  7 16  1  0
  8 18  1  0
 10 18  1  0
 10 20  1  0
 11 15  4  0
 11 26  1  0
 13 22  4  0
 15 27  4  0
 16 19  1  0
 16 20  1  0
 17 19  4  0
 17 21  4  0
 19 22  4  0
 20 28  2  0
 25 27  4  0
M  END
$$$$

 Created by Python create_sdf_string function

 28 57  0  0  0  0  0  0  0  0999 V2000
    9.8444   10.2402   19.3880 C   0  0  0  0  0  0  0  0  0  0  0  0
    2.5923    7.1143   19.3966 C   0  0  0  0  0  0  0  0  0  0  0  0
    8.8289    4.0712   23.1729 C   0  0  0  0  0  0  0  0  0  0  0  0
   10.6128   10.2249   20.5145 C   0  0  0  0  0  0  0  0  0  0  0  0
    6.9779   11.3744   20.7397 O   0  0  0  0  0  0  0  0  0  0  0  0
    6.8353    8.3254   21.1311 C   0  0  0  0  0  0  0  0  0  0  0  0
    9.0530   10.3723   21.5472 C   0  0  0  0  0  0  0  0  0  0  0  0
    0.5391    8.7262   20.4059 N   0  0  0  0  0  0  0  0  0  0  0  0
    8.3153    9.3794   21.9040 N   0  0  0  0  0  0  0  0  0  0  0  0
    4.8453    8.1833   19.1840 C   0  0  0  0  0  0  0  0  0  0  0  0
    8.6021    4.8585   23.3555 S   0  0  0  0  0  0  0  0  0  0  0  0
    4.7932    7.5307   20.5068 F   0  0  0  0  0  0  0  0  0  0  0  0
    8.0738    7.2853   21.3181 C   0  0  0  0  0  0  0  0  0  0  0  0
    8.3543   10.6673   20.9812 C   0  0  0  0  0  0  0  0  0  0  0  0
    7.9723    5.5436   22.0263 C   0  0  0  0  0  0  0  0  0  0  0  0
    8.3073    8.3841   23.1145 C   0  0  0  0  0  0  0  0  0  0  0  0
    9.4986    4.2503   21.0587 C   0  0  0  0  0  0  0  0  0  0  0  0
    7.2913    5.8585   23.3941 C   0  0  0  0  0  0  0  0  0  0  0  0
   11.7234    9.7907   21.1772 F   0  0  0  0  0  0  0  0  0  0  0  0
   11.1427    3.1991   23.8244 O   0  0  0  0  0  0  0  0  0  0  0  0
    4.1940    7.0638   19.0012 N   0  0  0  0  0  0  0  0  0  0  0  0
    5.2393    6.4494   20.6183 Cl  0  0  0  0  0  0  0  0  0  0  0  0
    9.4500    9.1673   23.0404 O   0  0  0  0  0  0  0  0  0  0  0  0
   12.4303    9.8081   19.2051 He  0  0  0  0  0  0  0  0  0  0  0  0
   10.7915   10.4956   19.0081 He  0  0  0  0  0  0  0  0  0  0  0  0
   13.9540    8.7584   18.5971 He  0  0  0  0  0  0  0  0  0  0  0  0
    8.4538    5.7459   20.9628 He  0  0  0  0  0  0  0  0  0  0  0  0
    4.9581   10.6168   19.2689 He  0  0  0  0  0  0  0  0  0  0  0  0
  1  7  4  0
  1 17  3  0
  2  5  4  0
  2  8  4  0
  2 10  4  0
  2 15  1  0
  3 13  3  0
  3 17  4  0
  3 18  2  0
  3 20  1  0
  3 23  1  0
  4  5  4  0
  4  6  1  0
  4  7  4  0
  4  9  1  0
  4 13  4  0
  4 19  4  0
  4 21  4  0
  5 14  2  0
  5 18  1  0
  5 19  1  0
  5 21  1  0
  6  9  1  0
  6 12  3  0
  6 13  1  0
  6 14  2  0
  6 15  1  0
  7 14  1  0
  7 21  1  0
  9 13  3  0
  9 14  1  0
  9 16  2  0
 10 12  3  0
 10 14  1  0
 11 13  1  0
 11 18  1  0
 11 21  1  0
 11 22  3  0
 12 16  2  0
 12 21  2  0
 12 22  4  0
 13 15  1  0
 13 16  3  0
 13 19  1  0
 13 20  3  0
 14 18  3  0
 14 19  1  0
 14 20  2  0
 15 16  3  0
 15 21  4  0
 15 23  1  0
 16 20  3  0
 18 19  2  0
 18 21  1  0
 20 22  1  0
 20 23  2  0
 21 22  4  0
M  END
$$$$

 Created by Python create_sdf_string function

 28 30  0  0  0  0  0  0  0  0999 V2000
    9.8837   10.4514   19.2361 C   0  0  0  0  0  0  0  0  0  0  0  0
    3.2451    7.6864   19.5821 C   0  0  0  0  0  0  0  0  0  0  0  0
   12.2207    9.7118   19.3974 C   0  0  0  0  0  0  0  0  0  0  0  0
    9.5479    4.0881   22.9064 C   0  0  0  0  0  0  0  0  0  0  0  0
   10.8800   10.0726   21.2856 C   0  0  0  0  0  0  0  0  0  0  0  0
    7.5289   11.4526   20.7637 O   0  0  0  0  0  0  0  0  0  0  0  0
    6.6873    8.4359   20.9058 C   0  0  0  0  0  0  0  0  0  0  0  0
    9.6470   10.3657   20.5922 C   0  0  0  0  0  0  0  0  0  0  0  0
    1.8319    8.2643   19.6067 Cl  0  0  0  0  0  0  0  0  0  0  0  0
    8.0161    9.5452   21.8767 N   0  0  0  0  0  0  0  0  0  0  0  0
    4.3448    8.4368   19.7403 C   0  0  0  0  0  0  0  0  0  0  0  0
   11.1158   10.1297   18.6568 C   0  0  0  0  0  0  0  0  0  0  0  0
    8.6719    4.7346   23.7477 C   0  0  0  0  0  0  0  0  0  0  0  0
   13.5407    9.2547   18.7139 Cl  0  0  0  0  0  0  0  0  0  0  0  0
    5.3751    7.7477   20.3022 C   0  0  0  0  0  0  0  0  0  0  0  0
    7.4036    7.5367   21.6730 C   0  0  0  0  0  0  0  0  0  0  0  0
    8.6950    5.5305   21.1466 C   0  0  0  0  0  0  0  0  0  0  0  0
    8.2486   10.5172   21.0680 C   0  0  0  0  0  0  0  0  0  0  0  0
    7.9972    6.1937   22.0207 C   0  0  0  0  0  0  0  0  0  0  0  0
    8.2719    8.6405   22.4679 C   0  0  0  0  0  0  0  0  0  0  0  0
    9.4732    4.4154   21.5639 C   0  0  0  0  0  0  0  0  0  0  0  0
    7.8183    5.7569   23.3297 C   0  0  0  0  0  0  0  0  0  0  0  0
   12.0398    9.7185   20.7902 C   0  0  0  0  0  0  0  0  0  0  0  0
   10.5227    3.1947   23.4197 O   0  0  0  0  0  0  0  0  0  0  0  0
    3.7019    6.4703   19.5875 N   0  0  0  0  0  0  0  0  0  0  0  0
    4.5815    9.7966   19.4466 C   0  0  0  0  0  0  0  0  0  0  0  0
    5.1439    6.5516   20.2516 N   0  0  0  0  0  0  0  0  0  0  0  0
    9.1563    8.7816   23.4861 O   0  0  0  0  0  0  0  0  0  0  0  0
  1  8  4  0
  1 12  4  0
  2  9  1  0
  2 11  4  0
  2 25  4  0
  3 12  4  0
  3 14  1  0
  3 23  4  0
  4 13  4  0
  4 21  4  0
  4 24  1  0
  5  8  4  0
  5 23  4  0
  6 18  2  0
  7 15  1  0
  7 16  1  0
  8 18  1  0
 10 18  1  0
 10 20  1  0
 11 15  4  0
 11 26  1  0
 13 22  4  0
 15 27  4  0
 16 19  1  0
 16 20  1  0
 17 19  4  0
 17 21  4  0
 19 22  4  0
 20 28  1  0
 25 27  4  0
M  END
$$$$

 Created by Python create_sdf_string function

 28 67  0  0  0  0  0  0  0  0999 V2000
    9.6387   10.3929   19.0333 C   0  0  0  0  0  0  0  0  0  0  0  0
    3.4124    7.6727   19.2911 C   0  0  0  0  0  0  0  0  0  0  0  0
   12.4627   10.0234   19.5758 C   0  0  0  0  0  0  0  0  0  0  0  0
    9.6079    3.7710   23.1760 C   0  0  0  0  0  0  0  0  0  0  0  0
   10.8323   10.0828   21.3040 C   0  0  0  0  0  0  0  0  0  0  0  0
    7.1029   11.3843   20.7943 O   0  0  0  0  0  0  0  0  0  0  0  0
    6.9375    7.9653   20.8772 C   0  0  0  0  0  0  0  0  0  0  0  0
   10.1574   10.1957   20.2992 C   0  0  0  0  0  0  0  0  0  0  0  0
    1.6986    8.7085   20.2762 Cl  0  0  0  0  0  0  0  0  0  0  0  0
    4.0334    8.2059   19.6059 C   0  0  0  0  0  0  0  0  0  0  0  0
   11.1390   10.8803   18.7623 C   0  0  0  0  0  0  0  0  0  0  0  0
   14.4168    9.8769   18.6901 Cl  0  0  0  0  0  0  0  0  0  0  0  0
    7.8494    8.2428   21.7546 C   0  0  0  0  0  0  0  0  0  0  0  0
    9.2927    5.7150   20.8467 C   0  0  0  0  0  0  0  0  0  0  0  0
    7.9444   10.7049   21.2426 C   0  0  0  0  0  0  0  0  0  0  0  0
    7.8743    6.0267   22.1684 C   0  0  0  0  0  0  0  0  0  0  0  0
    7.6180    7.8603   22.4786 F   0  0  0  0  0  0  0  0  0  0  0  0
    9.6860    4.6079   21.9511 C   0  0  0  0  0  0  0  0  0  0  0  0
    7.8430    5.4108   23.4503 C   0  0  0  0  0  0  0  0  0  0  0  0
   11.7036    9.1915   20.6646 C   0  0  0  0  0  0  0  0  0  0  0  0
   11.0027    3.3985   23.1182 O   0  0  0  0  0  0  0  0  0  0  0  0
    3.8463    6.6128   19.8826 N   0  0  0  0  0  0  0  0  0  0  0  0
    5.1769    6.9832   19.8590 S   0  0  0  0  0  0  0  0  0  0  0  0
    9.1445    8.9913   23.7085 O   0  0  0  0  0  0  0  0  0  0  0  0
    8.1189    9.1940   21.7769 He  0  0  0  0  0  0  0  0  0  0  0  0
    8.9295    4.9500   23.9358 He  0  0  0  0  0  0  0  0  0  0  0  0
    5.4868    7.9158   20.0839 He  0  0  0  0  0  0  0  0  0  0  0  0
    4.3448    9.6710   18.6522 He  0  0  0  0  0  0  0  0  0  0  0  0
  1  6  2  0
  1 10  1  0
  1 14  1  0
  1 17  2  0
  2  3  3  0
  2  5  2  0
  2  7  4  0
  2  8  4  0
  2  9  1  0
  2 10  2  0
  2 14  1  0
  3  4  1  0
  3  5  3  0
  3  8  3  0
  3 10  3  0
  3 11  4  0
  3 12  2  0
  3 15  4  0
  3 20  4  0
  3 22  2  0
  4 16  1  0
  4 22  1  0
  5  8  4  0
  5 11  1  0
  5 17  3  0
  5 18  2  0
  5 19  1  0
  5 21  4  0
  5 23  1  0
  6  7  2  0
  6 15  2  0
  7 13  1  0
  7 19  2  0
  8 10  3  0
  8 13  1  0
  8 16  2  0
  8 18  1  0
  8 20  2  0
  9 12  2  0
  9 24  1  0
 10 11  2  0
 10 12  2  0
 10 14  3  0
 10 19  2  0
 10 23  4  0
 11 12  3  0
 11 20  1  0
 11 24  2  0
 12 22  3  0
 12 24  1  0
 13 16  3  0
 13 18  4  0
 14 18  4  0
 14 22  1  0
 14 23  4  0
 14 24  3  0
 15 19  4  0
 15 22  1  0
 15 24  4  0
 16 17  2  0
 16 19  4  0
 17 24  1  0
 18 21  3  0
 18 23  3  0
 19 23  4  0
 22 23  4  0
 23 24  3  0
M  END
$$$$

 Created by Python create_sdf_string function

 28 30  0  0  0  0  0  0  0  0999 V2000
   10.0065   10.6872   19.2687 C   0  0  0  0  0  0  0  0  0  0  0  0
    3.2788    7.8060   19.6512 C   0  0  0  0  0  0  0  0  0  0  0  0
   12.3527   10.0145   19.4490 C   0  0  0  0  0  0  0  0  0  0  0  0
    9.8122    4.2277   22.9443 C   0  0  0  0  0  0  0  0  0  0  0  0
   10.8637    9.6808   21.2227 C   0  0  0  0  0  0  0  0  0  0  0  0
    7.4639   11.2900   20.6019 O   0  0  0  0  0  0  0  0  0  0  0  0
    6.6444    8.2291   20.5258 C   0  0  0  0  0  0  0  0  0  0  0  0
    9.7733   10.2341   20.4786 C   0  0  0  0  0  0  0  0  0  0  0  0
    1.8471    8.3036   19.6199 Cl  0  0  0  0  0  0  0  0  0  0  0  0
    8.0148    9.4942   21.8011 N   0  0  0  0  0  0  0  0  0  0  0  0
    4.4070    8.6071   19.6336 C   0  0  0  0  0  0  0  0  0  0  0  0
   11.3225   10.5258   18.7146 C   0  0  0  0  0  0  0  0  0  0  0  0
    8.8293    4.7039   23.8236 C   0  0  0  0  0  0  0  0  0  0  0  0
   13.9500    9.9694   18.8053 Cl  0  0  0  0  0  0  0  0  0  0  0  0
    5.4527    7.8996   20.1516 C   0  0  0  0  0  0  0  0  0  0  0  0
    7.2409    7.5658   21.6504 C   0  0  0  0  0  0  0  0  0  0  0  0
    8.9756    5.8211   21.3119 C   0  0  0  0  0  0  0  0  0  0  0  0
    8.2735   10.4493   20.9466 C   0  0  0  0  0  0  0  0  0  0  0  0
    8.1243    6.3005   22.2019 C   0  0  0  0  0  0  0  0  0  0  0  0
    7.8903    8.6330   22.6031 C   0  0  0  0  0  0  0  0  0  0  0  0
    9.7969    4.8086   21.6709 C   0  0  0  0  0  0  0  0  0  0  0  0
    8.0151    5.7636   23.4356 C   0  0  0  0  0  0  0  0  0  0  0  0
   12.0755    9.5676   20.7147 C   0  0  0  0  0  0  0  0  0  0  0  0
   10.7784    3.2560   23.3538 O   0  0  0  0  0  0  0  0  0  0  0  0
    3.7285    6.4979   19.9142 C   0  0  0  0  0  0  0  0  0  0  0  0
    4.4890    9.8037   19.1779 O   0  0  0  0  0  0  0  0  0  0  0  0
    5.1500    6.5921   20.2889 N   0  0  0  0  0  0  0  0  0  0  0  0
    8.6442    8.7668   23.6630 O   0  0  0  0  0  0  0  0  0  0  0  0
  1  8  4  0
  1 12  4  0
  2  9  1  0
  2 11  4  0
  2 25  4  0
  3 12  4  0
  3 14  1  0
  3 23  4  0
  4 13  4  0
  4 21  4  0
  4 24  1  0
  5  8  4  0
  5 23  4  0
  6 18  2  0
  7 15  1  0
  7 16  1  0
  8 18  1  0
 10 18  1  0
 10 20  1  0
 11 15  4  0
 11 26  2  0
 13 22  4  0
 15 27  4  0
 16 19  1  0
 16 20  1  0
 17 19  4  0
 17 21  4  0
 19 22  4  0
 20 28  1  0
 25 27  4  0
M  END
$$$$

 Created by Python create_sdf_string function

 28 52  0  0  0  0  0  0  0  0999 V2000
    9.9144   10.1645   19.9784 C   0  0  0  0  0  0  0  0  0  0  0  0
    4.0046    7.6508   20.0342 C   0  0  0  0  0  0  0  0  0  0  0  0
   12.2573    9.7320   19.3609 S   0  0  0  0  0  0  0  0  0  0  0  0
    8.5317    4.6918   23.3085 C   0  0  0  0  0  0  0  0  0  0  0  0
   10.7258    9.2170   20.3256 C   0  0  0  0  0  0  0  0  0  0  0  0
    7.9961   11.1904   20.7521 O   0  0  0  0  0  0  0  0  0  0  0  0
    6.3623    8.1850   21.0280 C   0  0  0  0  0  0  0  0  0  0  0  0
    9.8149    9.8758   20.8044 N   0  0  0  0  0  0  0  0  0  0  0  0
    1.7786    9.0085   20.1885 I   0  0  0  0  0  0  0  0  0  0  0  0
    7.9750    8.1009   21.8646 N   0  0  0  0  0  0  0  0  0  0  0  0
   12.6635   10.4093   18.5579 C   0  0  0  0  0  0  0  0  0  0  0  0
    9.3592    4.6465   22.9738 C   0  0  0  0  0  0  0  0  0  0  0  0
   14.1174   10.0156   19.2578 C   0  0  0  0  0  0  0  0  0  0  0  0
    7.2213    7.7473   21.7038 C   0  0  0  0  0  0  0  0  0  0  0  0
    8.5003    9.9839   20.9501 Cl  0  0  0  0  0  0  0  0  0  0  0  0
    8.1416    6.3401   22.6776 O   0  0  0  0  0  0  0  0  0  0  0  0
   10.3055    4.4186   21.2601 C   0  0  0  0  0  0  0  0  0  0  0  0
   12.5628    9.6799   20.8106 N   0  0  0  0  0  0  0  0  0  0  0  0
   10.6967    3.0537   23.2696 F   0  0  0  0  0  0  0  0  0  0  0  0
    3.5090    5.9976   19.8818 C   0  0  0  0  0  0  0  0  0  0  0  0
    4.5215    9.9287   19.8104 O   0  0  0  0  0  0  0  0  0  0  0  0
    5.1130    6.1593   19.4499 N   0  0  0  0  0  0  0  0  0  0  0  0
    8.3306    9.2182   23.0548 O   0  0  0  0  0  0  0  0  0  0  0  0
    4.7419    9.0969   18.9278 He  0  0  0  0  0  0  0  0  0  0  0  0
    5.6262    7.5604   19.7245 He  0  0  0  0  0  0  0  0  0  0  0  0
    9.3908    5.1893   21.9193 He  0  0  0  0  0  0  0  0  0  0  0  0
    7.8961    8.9806   21.9476 He  0  0  0  0  0  0  0  0  0  0  0  0
    8.0995    6.3548   23.8344 He  0  0  0  0  0  0  0  0  0  0  0  0
  1  4  2  0
  1 11  4  0
  1 14  4  0
  2  9  1  0
  2 11  3  0
  2 20  4  0
  3  9  4  0
  3 11  4  0
  3 14  4  0
  3 22  4  0
  4 10  2  0
  4 14  1  0
  4 15  4  0
  4 16  3  0
  4 17  4  0
  4 19  3  0
  4 21  3  0
  4 22  2  0
  5  8  2  0
  5 14  4  0
  5 16  4  0
  5 18  4  0
  5 23  4  0
  6 15  2  0
  6 16  1  0
  6 17  2  0
  7  8  2  0
  7 16  1  0
  8 12  2  0
  8 19  2  0
  9 10  2  0
  9 15  4  0
  9 21  2  0
  9 22  4  0
 10 12  2  0
 10 15  1  0
 10 19  2  0
 11 14  2  0
 12 17  1  0
 12 18  4  0
 12 23  4  0
 13 21  3  0
 14 16  1  0
 14 19  3  0
 15 23  2  0
 16 17  4  0
 16 21  3  0
 16 23  4  0
 19 20  3  0
 19 21  3  0
 20 22  1  0
 21 22  3  0
M  END
$$$$

 Created by Python create_sdf_string function

 28 31  0  0  0  0  0  0  0  0999 V2000
   10.6061   10.3397   19.2205 C   0  0  0  0  0  0  0  0  0  0  0  0
    3.4684    7.8479   19.6419 C   0  0  0  0  0  0  0  0  0  0  0  0
   12.8222    9.9721   19.4662 C   0  0  0  0  0  0  0  0  0  0  0  0
    9.6598    4.1797   23.0281 C   0  0  0  0  0  0  0  0  0  0  0  0
   11.0309    9.6541   20.6227 C   0  0  0  0  0  0  0  0  0  0  0  0
    8.0177   11.1091   20.7283 O   0  0  0  0  0  0  0  0  0  0  0  0
    6.6714    7.9289   20.6353 C   0  0  0  0  0  0  0  0  0  0  0  0
   10.2938    9.8850   20.8227 C   0  0  0  0  0  0  0  0  0  0  0  0
    1.9781    8.4404   19.7926 I   0  0  0  0  0  0  0  0  0  0  0  0
    8.4322    8.9831   21.5918 N   0  0  0  0  0  0  0  0  0  0  0  0
    4.5479    8.5639   19.7183 C   0  0  0  0  0  0  0  0  0  0  0  0
   11.9213   10.4597   18.5641 C   0  0  0  0  0  0  0  0  0  0  0  0
    8.9673    4.6881   23.7057 C   0  0  0  0  0  0  0  0  0  0  0  0
   14.2249   10.0059   19.2254 C   0  0  0  0  0  0  0  0  0  0  0  0
    5.4696    7.6589   20.0406 N   0  0  0  0  0  0  0  0  0  0  0  0
    7.2803    7.3093   21.6515 C   0  0  0  0  0  0  0  0  0  0  0  0
    9.2314    5.7942   21.4483 C   0  0  0  0  0  0  0  0  0  0  0  0
    8.6477   10.1493   21.1873 C   0  0  0  0  0  0  0  0  0  0  0  0
    8.3009    6.2855   22.2711 C   0  0  0  0  0  0  0  0  0  0  0  0
    7.7296    8.8544   22.3780 C   0  0  0  0  0  0  0  0  0  0  0  0
    9.8571    4.8351   21.7341 C   0  0  0  0  0  0  0  0  0  0  0  0
    8.0601    5.9020   23.4550 C   0  0  0  0  0  0  0  0  0  0  0  0
   12.3018    9.4104   20.6269 N   0  0  0  0  0  0  0  0  0  0  0  0
   10.5170    2.9893   23.3310 F   0  0  0  0  0  0  0  0  0  0  0  0
    3.7017    6.5149   19.5832 C   0  0  0  0  0  0  0  0  0  0  0  0
    4.6417    9.8571   19.5576 O   0  0  0  0  0  0  0  0  0  0  0  0
    5.0547    6.3051   19.8056 N   0  0  0  0  0  0  0  0  0  0  0  0
    8.1541    9.4061   23.5160 O   0  0  0  0  0  0  0  0  0  0  0  0
  1  5  4  0
  1  8  4  0
  1 12  4  0
  2  9  1  0
  2 11  4  0
  2 25  4  0
  3 12  4  0
  3 14  1  0
  3 23  4  0
  4 13  4  0
  4 21  4  0
  4 24  1  0
  5  8  4  0
  5 23  4  0
  6 18  2  0
  7 15  1  0
  7 16  1  0
  8 18  1  0
 10 18  1  0
 10 20  1  0
 11 15  4  0
 11 26  1  0
 13 22  4  0
 15 27  4  0
 16 19  1  0
 16 20  1  0
 17 19  4  0
 17 21  4  0
 19 22  4  0
 20 28  1  0
 25 27  4  0
M  END
$$$$

 Created by Python create_sdf_string function

 28 45  0  0  0  0  0  0  0  0999 V2000
   10.9859   10.0490   18.4895 C   0  0  0  0  0  0  0  0  0  0  0  0
    3.3722    7.7697   20.0486 C   0  0  0  0  0  0  0  0  0  0  0  0
    9.3817    4.2737   23.1166 C   0  0  0  0  0  0  0  0  0  0  0  0
    7.7708   10.6694   20.9490 O   0  0  0  0  0  0  0  0  0  0  0  0
   10.0356   10.2817   20.4232 C   0  0  0  0  0  0  0  0  0  0  0  0
    2.3850    7.9900   19.6536 I   0  0  0  0  0  0  0  0  0  0  0  0
    8.1035    9.1112   21.1840 N   0  0  0  0  0  0  0  0  0  0  0  0
    4.3464    8.8379   19.2250 C   0  0  0  0  0  0  0  0  0  0  0  0
   11.7201   11.0102   19.2010 C   0  0  0  0  0  0  0  0  0  0  0  0
    9.4670    5.4621   24.1198 C   0  0  0  0  0  0  0  0  0  0  0  0
   14.3403    9.1384   19.3461 C   0  0  0  0  0  0  0  0  0  0  0  0
    5.8569    7.6562   20.1530 N   0  0  0  0  0  0  0  0  0  0  0  0
    7.1787    6.9393   21.7273 C   0  0  0  0  0  0  0  0  0  0  0  0
    9.5749    5.7251   22.1776 Cl  0  0  0  0  0  0  0  0  0  0  0  0
    8.8472   10.4818   19.9659 C   0  0  0  0  0  0  0  0  0  0  0  0
    8.6876    6.2366   21.7926 I   0  0  0  0  0  0  0  0  0  0  0  0
    8.4223    8.6365   22.4626 C   0  0  0  0  0  0  0  0  0  0  0  0
    8.2304    6.3584   23.2941 C   0  0  0  0  0  0  0  0  0  0  0  0
   10.3879    2.5767   23.8093 P   0  0  0  0  0  0  0  0  0  0  0  0
    4.7187   10.4334   19.8002 F   0  0  0  0  0  0  0  0  0  0  0  0
    8.7397    9.0969   23.5186 I   0  0  0  0  0  0  0  0  0  0  0  0
   12.7196    9.6395   19.6736 He  0  0  0  0  0  0  0  0  0  0  0  0
   11.0429   10.0467   20.8588 He  0  0  0  0  0  0  0  0  0  0  0  0
    6.4233    6.9567   20.3597 He  0  0  0  0  0  0  0  0  0  0  0  0
   10.1149    5.3584   21.9755 He  0  0  0  0  0  0  0  0  0  0  0  0
   12.3835    9.2156   20.4437 He  0  0  0  0  0  0  0  0  0  0  0  0
    4.3859    6.6087   19.5600 He  0  0  0  0  0  0  0  0  0  0  0  0
    5.0607    6.4856   19.8569 He  0  0  0  0  0  0  0  0  0  0  0  0
  1  4  3  0
  1  5  4  0
  1  9  4  0
  1 11  2  0
  1 19  1  0
  2  6  1  0
  2  8  4  0
  2 10  3  0
  2 16  3  0
  2 17  1  0
  3  5  1  0
  3 10  4  0
  3 19  1  0
  4  9  2  0
  4 15  2  0
  5  7  1  0
  5 17  3  0
  6 10  1  0
  7  9  3  0
  7 11  3  0
  7 13  2  0
  7 17  1  0
  8 12  4  0
  8 13  4  0
  8 18  3  0
  8 19  4  0
  8 20  1  0
  9 11  4  0
  9 16  3  0
 10 14  2  0
 12 13  2  0
 12 14  4  0
 13 14  3  0
 13 15  4  0
 13 16  1  0
 13 18  1  0
 13 20  1  0
 14 15  2  0
 14 20  2  0
 15 19  2  0
 16 17  1  0
 16 18  4  0
 16 20  2  0
 17 21  1  0
 20 21  4  0
M  END
$$$$

 Created by Python create_sdf_string function

 28 30  0  0  0  0  0  0  0  0999 V2000
   10.6316   10.6682   19.1088 C   0  0  0  0  0  0  0  0  0  0  0  0
    3.7128    7.8434   19.6027 C   0  0  0  0  0  0  0  0  0  0  0  0
   12.8858    9.7774   19.5677 C   0  0  0  0  0  0  0  0  0  0  0  0
    9.8946    4.3419   23.2625 C   0  0  0  0  0  0  0  0  0  0  0  0
   11.1571    9.5175   21.0195 C   0  0  0  0  0  0  0  0  0  0  0  0
    8.0408   11.0309   20.3970 O   0  0  0  0  0  0  0  0  0  0  0  0
    6.1716    7.2926   20.5196 C   0  0  0  0  0  0  0  0  0  0  0  0
   10.1765   10.1548   20.2148 C   0  0  0  0  0  0  0  0  0  0  0  0
    2.2042    8.3159   19.3698 Cl  0  0  0  0  0  0  0  0  0  0  0  0
    8.2621    9.0442   21.1267 N   0  0  0  0  0  0  0  0  0  0  0  0
    4.7206    8.7552   19.7441 C   0  0  0  0  0  0  0  0  0  0  0  0
   11.9382   10.4377   18.7185 C   0  0  0  0  0  0  0  0  0  0  0  0
    9.0925    5.0867   23.9398 C   0  0  0  0  0  0  0  0  0  0  0  0
   14.2940    9.5752   19.2630 C   0  0  0  0  0  0  0  0  0  0  0  0
    5.8335    8.5209   20.1712 C   0  0  0  0  0  0  0  0  0  0  0  0
    7.2830    7.0441   21.4152 C   0  0  0  0  0  0  0  0  0  0  0  0
    9.9577    5.8319   21.5387 C   0  0  0  0  0  0  0  0  0  0  0  0
    8.7010   10.1546   20.5681 C   0  0  0  0  0  0  0  0  0  0  0  0
    8.4874    6.8001   22.3806 C   0  0  0  0  0  0  0  0  0  0  0  0
    8.3961    8.6232   22.2201 C   0  0  0  0  0  0  0  0  0  0  0  0
   10.2479    4.9303   22.0926 C   0  0  0  0  0  0  0  0  0  0  0  0
    8.4928    6.0628   23.6032 C   0  0  0  0  0  0  0  0  0  0  0  0
   12.3646    9.3475   20.7475 C   0  0  0  0  0  0  0  0  0  0  0  0
   10.4358    2.9785   23.7148 O   0  0  0  0  0  0  0  0  0  0  0  0
    4.1167    6.5117   19.6883 C   0  0  0  0  0  0  0  0  0  0  0  0
    4.4348   10.1216   19.4057 Cl  0  0  0  0  0  0  0  0  0  0  0  0
    5.3408    6.2287   20.0802 C   0  0  0  0  0  0  0  0  0  0  0  0
    8.6011    9.2107   23.3752 O   0  0  0  0  0  0  0  0  0  0  0  0
  1  8  4  0
  1 12  4  0
  2  9  1  0
  2 11  4  0
  2 25  4  0
  3 12  4  0
  3 14  1  0
  3 23  4  0
  4 13  4  0
  4 21  4  0
  4 24  1  0
  5  8  4  0
  5 23  4  0
  6 18  2  0
  7 15  4  0
  7 16  1  0
  7 27  4  0
  8 18  1  0
 10 18  1  0
 10 20  1  0
 11 15  4  0
 11 26  1  0
 13 22  4  0
 16 19  1  0
 17 19  4  0
 17 21  4  0
 19 20  1  0
 19 22  4  0
 20 28  1  0
 25 27  4  0
M  END
$$$$

 Created by Python create_sdf_string function

 28 45  0  0  0  0  0  0  0  0999 V2000
   11.1274   10.8781   18.7058 C   0  0  0  0  0  0  0  0  0  0  0  0
   12.9747   10.1660   19.5159 C   0  0  0  0  0  0  0  0  0  0  0  0
   10.6276    9.3919   21.1016 C   0  0  0  0  0  0  0  0  0  0  0  0
    8.3582   10.4554   20.3753 C   0  0  0  0  0  0  0  0  0  0  0  0
    5.7294    7.1380   20.4038 C   0  0  0  0  0  0  0  0  0  0  0  0
   10.1832   10.8945   19.9797 C   0  0  0  0  0  0  0  0  0  0  0  0
    1.8956    8.8460   19.9871 Cl  0  0  0  0  0  0  0  0  0  0  0  0
    8.4751    8.9584   20.1962 N   0  0  0  0  0  0  0  0  0  0  0  0
    4.2464    8.9716   20.0462 C   0  0  0  0  0  0  0  0  0  0  0  0
    9.2526    5.8994   24.4735 O   0  0  0  0  0  0  0  0  0  0  0  0
   13.7897   10.1366   19.2026 C   0  0  0  0  0  0  0  0  0  0  0  0
    5.7460    8.8890   20.0937 C   0  0  0  0  0  0  0  0  0  0  0  0
    7.5579    7.1984   21.3243 C   0  0  0  0  0  0  0  0  0  0  0  0
    8.9508    6.4413   21.5930 C   0  0  0  0  0  0  0  0  0  0  0  0
    9.2275    9.6742   20.4465 C   0  0  0  0  0  0  0  0  0  0  0  0
    8.0378    6.6990   22.2642 C   0  0  0  0  0  0  0  0  0  0  0  0
    7.7459    8.8799   22.1736 C   0  0  0  0  0  0  0  0  0  0  0  0
   10.5579    4.5617   22.0751 C   0  0  0  0  0  0  0  0  0  0  0  0
    7.7019    5.3069   23.7695 C   0  0  0  0  0  0  0  0  0  0  0  0
   12.3092   10.4086   20.1697 C   0  0  0  0  0  0  0  0  0  0  0  0
   10.4762    2.9613   23.3064 O   0  0  0  0  0  0  0  0  0  0  0  0
    3.9978    5.8025   18.7312 C   0  0  0  0  0  0  0  0  0  0  0  0
    8.4084    8.9904   22.7876 O   0  0  0  0  0  0  0  0  0  0  0  0
    2.7634    7.5310   20.0058 He  0  0  0  0  0  0  0  0  0  0  0  0
    9.2869    4.2858   23.1551 He  0  0  0  0  0  0  0  0  0  0  0  0
   11.2370   11.0040   18.2756 He  0  0  0  0  0  0  0  0  0  0  0  0
    4.2359   10.5955   19.7855 He  0  0  0  0  0  0  0  0  0  0  0  0
    5.3859    6.7999   20.2789 He  0  0  0  0  0  0  0  0  0  0  0  0
  1  6  4  0
  1 14  4  0
  2 14  3  0
  3  6  4  0
  3 20  1  0
  4  5  1  0
  4 14  1  0
  4 15  2  0
  5 11  1  0
  5 12  4  0
  5 13  1  0
  5 20  2  0
  5 21  1  0
  6  9  2  0
  6 11  3  0
  6 15  2  0
  6 16  3  0
  7 15  4  0
  8 15  1  0
  8 16  4  0
  8 17  1  0
  8 23  1  0
  9 12  4  0
  9 14  3  0
  9 18  1  0
  9 20  3  0
 10 12  1  0
 10 13  3  0
 10 14  4  0
 10 20  4  0
 10 21  1  0
 13 15  1  0
 13 21  2  0
 14 15  4  0
 14 16  4  0
 15 17  1  0
 16 17  1  0
 16 19  4  0
 16 22  2  0
 17 19  4  0
 17 20  4  0
 17 21  2  0
 18 21  3  0
 21 23  3  0
 22 23  1  0
M  END
$$$$

 Created by Python create_sdf_string function

 28 31  0  0  0  0  0  0  0  0999 V2000
   10.6069   10.8933   18.8098 C   0  0  0  0  0  0  0  0  0  0  0  0
    3.3673    7.9151   19.6821 C   0  0  0  0  0  0  0  0  0  0  0  0
   12.9430   10.3446   19.3464 C   0  0  0  0  0  0  0  0  0  0  0  0
    9.7866    4.3853   23.2797 C   0  0  0  0  0  0  0  0  0  0  0  0
   11.2196    9.8690   20.8843 C   0  0  0  0  0  0  0  0  0  0  0  0
    8.0727   11.0070   20.2748 O   0  0  0  0  0  0  0  0  0  0  0  0
    5.9150    7.4923   20.4618 C   0  0  0  0  0  0  0  0  0  0  0  0
   10.3027   10.3276   20.0053 C   0  0  0  0  0  0  0  0  0  0  0  0
    1.8007    8.2732   19.5468 Cl  0  0  0  0  0  0  0  0  0  0  0  0
    8.4931    8.9320   20.7287 N   0  0  0  0  0  0  0  0  0  0  0  0
    4.2583    8.9649   19.8714 C   0  0  0  0  0  0  0  0  0  0  0  0
   11.9455   10.8919   18.4578 C   0  0  0  0  0  0  0  0  0  0  0  0
    8.8195    5.0699   24.0950 C   0  0  0  0  0  0  0  0  0  0  0  0
   14.3584   10.3037   18.9888 C   0  0  0  0  0  0  0  0  0  0  0  0
    5.4589    8.7095   20.2452 C   0  0  0  0  0  0  0  0  0  0  0  0
    7.0039    7.1703   21.3176 C   0  0  0  0  0  0  0  0  0  0  0  0
    9.2702    5.9761   21.5780 C   0  0  0  0  0  0  0  0  0  0  0  0
    8.8621   10.1494   20.3991 C   0  0  0  0  0  0  0  0  0  0  0  0
    8.2401    6.5592   22.2984 C   0  0  0  0  0  0  0  0  0  0  0  0
    7.9127    8.1805   21.9072 C   0  0  0  0  0  0  0  0  0  0  0  0
    9.9836    4.9007   22.0422 C   0  0  0  0  0  0  0  0  0  0  0  0
    7.9808    6.0289   23.5938 C   0  0  0  0  0  0  0  0  0  0  0  0
   12.5269    9.8903   20.5293 C   0  0  0  0  0  0  0  0  0  0  0  0
   10.5003    3.1607   23.7052 O   0  0  0  0  0  0  0  0  0  0  0  0
    3.8572    6.6690   19.6478 C   0  0  0  0  0  0  0  0  0  0  0  0
    3.7168   10.5673   19.7185 Cl  0  0  0  0  0  0  0  0  0  0  0  0
    5.1143    6.4056   19.9876 C   0  0  0  0  0  0  0  0  0  0  0  0
    8.2209    8.9853   22.8828 O   0  0  0  0  0  0  0  0  0  0  0  0
  1  8  4  0
  1 12  4  0
  2  9  1  0
  2 11  4  0
  2 25  4  0
  3 12  4  0
  3 14  1  0
  3 23  4  0
  4 13  4  0
  4 21  4  0
  4 24  1  0
  5  8  4  0
  5 23  4  0
  6 18  2  0
  7 15  4  0
  7 16  1  0
  7 27  4  0
  8 18  1  0
 10 18  1  0
 10 20  1  0
 11 15  4  0
 11 26  1  0
 13 22  4  0
 16 19  1  0
 16 20  1  0
 17 19  4  0
 17 21  4  0
 19 20  1  0
 19 22  4  0
 20 28  2  0
 25 27  4  0
M  END
$$$$

 Created by Python create_sdf_string function

 28 53  0  0  0  0  0  0  0  0999 V2000
   11.1128   11.1760   19.8473 C   0  0  0  0  0  0  0  0  0  0  0  0
    3.9690    8.3071   20.0524 C   0  0  0  0  0  0  0  0  0  0  0  0
   13.2901   10.4527   19.8241 N   0  0  0  0  0  0  0  0  0  0  0  0
    8.5594   11.3804   20.4462 O   0  0  0  0  0  0  0  0  0  0  0  0
    6.0579    7.4996   20.7764 C   0  0  0  0  0  0  0  0  0  0  0  0
    9.9204   10.2426   19.6137 Cl  0  0  0  0  0  0  0  0  0  0  0  0
    1.9379    8.2949   20.4303 Cl  0  0  0  0  0  0  0  0  0  0  0  0
    8.4031    9.3274   20.6514 N   0  0  0  0  0  0  0  0  0  0  0  0
    4.0515    9.1632   20.2271 C   0  0  0  0  0  0  0  0  0  0  0  0
   12.0297   11.4442   18.1588 C   0  0  0  0  0  0  0  0  0  0  0  0
    9.0274    5.3041   23.5977 C   0  0  0  0  0  0  0  0  0  0  0  0
   14.4352   10.4358   19.2922 C   0  0  0  0  0  0  0  0  0  0  0  0
    4.9347    8.4242   20.1643 C   0  0  0  0  0  0  0  0  0  0  0  0
    7.2520    7.1870   20.8834 C   0  0  0  0  0  0  0  0  0  0  0  0
    9.2864    6.1434   21.4425 C   0  0  0  0  0  0  0  0  0  0  0  0
    8.7800    9.6327   19.8667 C   0  0  0  0  0  0  0  0  0  0  0  0
    8.9671    6.9483   21.2964 C   0  0  0  0  0  0  0  0  0  0  0  0
    9.6618    4.8533   22.1077 Br  0  0  0  0  0  0  0  0  0  0  0  0
    7.9865    5.7289   23.3933 C   0  0  0  0  0  0  0  0  0  0  0  0
   12.4302   10.0628   20.1371 P   0  0  0  0  0  0  0  0  0  0  0  0
   10.7844    2.8737   23.2925 O   0  0  0  0  0  0  0  0  0  0  0  0
    4.0884    7.1458   19.2820 C   0  0  0  0  0  0  0  0  0  0  0  0
    3.7994   10.9458   19.4484 Cl  0  0  0  0  0  0  0  0  0  0  0  0
    9.5253    3.9457   23.4640 He  0  0  0  0  0  0  0  0  0  0  0  0
   11.3372    9.8167   20.3810 He  0  0  0  0  0  0  0  0  0  0  0  0
    7.4893    8.3354   21.9785 He  0  0  0  0  0  0  0  0  0  0  0  0
    5.1838    6.4572   20.0188 He  0  0  0  0  0  0  0  0  0  0  0  0
    8.5643    8.7558   23.3677 He  0  0  0  0  0  0  0  0  0  0  0  0
  1  6  4  0
  1 10  4  0
  1 15  1  0
  1 20  3  0
  2  7  1  0
  2 16  4  0
  2 18  4  0
  2 22  4  0
  3  5  2  0
  3 10  4  0
  3 11  2  0
  3 12  1  0
  3 20  4  0
  4  6  4  0
  4  7  2  0
  4 16  2  0
  4 17  3  0
  5 13  4  0
  5 14  1  0
  5 19  2  0
  5 20  1  0
  6  9  4  0
  6 11  1  0
  6 12  4  0
  6 16  1  0
  6 21  3  0
  6 23  2  0
  7 15  3  0
  7 20  2  0
  7 23  3  0
  8 15  4  0
  8 16  1  0
  9 12  3  0
  9 13  4  0
  9 18  4  0
  9 23  1  0
 10 17  4  0
 10 22  2  0
 11 12  3  0
 11 16  1  0
 11 18  1  0
 12 19  3  0
 12 20  3  0
 14 17  1  0
 14 18  4  0
 15 16  4  0
 15 18  4  0
 15 22  4  0
 17 18  3  0
 17 19  4  0
 17 20  2  0
 20 22  4  0
 21 23  4  0
M  END
$$$$

 Created by Python create_sdf_string function

 28 30  0  0  0  0  0  0  0  0999 V2000
   10.8201   11.2684   19.0053 C   0  0  0  0  0  0  0  0  0  0  0  0
    3.3672    8.1260   19.8665 C   0  0  0  0  0  0  0  0  0  0  0  0
   13.0679   10.5238   19.4568 N   0  0  0  0  0  0  0  0  0  0  0  0
    9.7573    4.3191   23.0540 C   0  0  0  0  0  0  0  0  0  0  0  0
   11.3345    9.4473   20.6209 C   0  0  0  0  0  0  0  0  0  0  0  0
    8.2674   11.2422   20.2084 O   0  0  0  0  0  0  0  0  0  0  0  0
    5.9890    7.6438   20.4881 C   0  0  0  0  0  0  0  0  0  0  0  0
   10.3985   10.3611   19.9435 C   0  0  0  0  0  0  0  0  0  0  0  0
    1.7077    8.4118   19.8473 Cl  0  0  0  0  0  0  0  0  0  0  0  0
    8.5094    9.1120   20.6438 N   0  0  0  0  0  0  0  0  0  0  0  0
    4.2586    9.2010   20.0138 C   0  0  0  0  0  0  0  0  0  0  0  0
   12.1668   11.3658   18.7897 C   0  0  0  0  0  0  0  0  0  0  0  0
    8.7810    4.9906   23.7964 C   0  0  0  0  0  0  0  0  0  0  0  0
   14.4312   10.6101   19.2201 C   0  0  0  0  0  0  0  0  0  0  0  0
    5.4974    8.9602   20.4446 C   0  0  0  0  0  0  0  0  0  0  0  0
    7.3483    7.3150   21.2809 C   0  0  0  0  0  0  0  0  0  0  0  0
    9.2885    5.8903   21.3025 C   0  0  0  0  0  0  0  0  0  0  0  0
    9.0478   10.3505   20.2558 C   0  0  0  0  0  0  0  0  0  0  0  0
    8.2554    6.4126   22.0061 C   0  0  0  0  0  0  0  0  0  0  0  0
    7.9138    8.6753   21.7432 C   0  0  0  0  0  0  0  0  0  0  0  0
   10.0195    4.8504   21.8208 C   0  0  0  0  0  0  0  0  0  0  0  0
    8.0792    6.0411   23.3906 C   0  0  0  0  0  0  0  0  0  0  0  0
   12.6009    9.5699   20.3465 C   0  0  0  0  0  0  0  0  0  0  0  0
   10.4960    3.1279   23.5148 O   0  0  0  0  0  0  0  0  0  0  0  0
    3.8787    6.8372   19.7411 C   0  0  0  0  0  0  0  0  0  0  0  0
    3.6880   10.8483   19.7218 Cl  0  0  0  0  0  0  0  0  0  0  0  0
    5.1955    6.6366   20.0120 C   0  0  0  0  0  0  0  0  0  0  0  0
    8.1908    9.0508   23.0163 O   0  0  0  0  0  0  0  0  0  0  0  0
  1  8  4  0
  1 12  4  0
  2  9  1  0
  2 11  4  0
  2 25  4  0
  3 12  4  0
  3 14  1  0
  3 23  4  0
  4 13  4  0
  4 21  4  0
  4 24  1  0
  5  8  4  0
  5 23  4  0
  6 18  2  0
  7 15  4  0
  7 16  1  0
  7 27  4  0
  8 18  1  0
 10 18  1  0
 10 20  1  0
 11 15  4  0
 11 26  1  0
 13 22  4  0
 16 19  1  0
 16 20  1  0
 17 19  4  0
 17 21  4  0
 19 22  4  0
 20 28  1  0
 25 27  4  0
M  END
$$$$

 Created by Python create_sdf_string function

 28 49  0  0  0  0  0  0  0  0999 V2000
   10.5360   11.0313   18.9196 O   0  0  0  0  0  0  0  0  0  0  0  0
    3.6797    7.9197   20.1479 C   0  0  0  0  0  0  0  0  0  0  0  0
    9.7323    4.5152   22.6783 C   0  0  0  0  0  0  0  0  0  0  0  0
   11.2992    9.3786   20.5397 C   0  0  0  0  0  0  0  0  0  0  0  0
    8.4386   11.4798   20.5084 O   0  0  0  0  0  0  0  0  0  0  0  0
    5.9251    7.6031   20.0670 C   0  0  0  0  0  0  0  0  0  0  0  0
   10.6378   10.7894   20.9229 C   0  0  0  0  0  0  0  0  0  0  0  0
    7.9401    9.0544   21.2456 N   0  0  0  0  0  0  0  0  0  0  0  0
    4.2319    9.3645   20.2251 C   0  0  0  0  0  0  0  0  0  0  0  0
    8.8479    4.4841   23.5313 C   0  0  0  0  0  0  0  0  0  0  0  0
   14.6385   10.6273   19.4151 C   0  0  0  0  0  0  0  0  0  0  0  0
    5.4043    9.4634   20.6556 C   0  0  0  0  0  0  0  0  0  0  0  0
    6.8562    7.6027   21.7400 F   0  0  0  0  0  0  0  0  0  0  0  0
    8.8425    6.4376   21.4660 C   0  0  0  0  0  0  0  0  0  0  0  0
    9.1721    9.8414   20.1457 Br  0  0  0  0  0  0  0  0  0  0  0  0
    7.9961    6.9790   22.1875 C   0  0  0  0  0  0  0  0  0  0  0  0
    8.3705    9.1537   21.4351 C   0  0  0  0  0  0  0  0  0  0  0  0
   10.1173    4.4252   21.6938 C   0  0  0  0  0  0  0  0  0  0  0  0
   12.6454    9.1890   20.2201 P   0  0  0  0  0  0  0  0  0  0  0  0
   10.1223    3.1486   23.5000 F   0  0  0  0  0  0  0  0  0  0  0  0
    4.4752    6.7867   19.7768 C   0  0  0  0  0  0  0  0  0  0  0  0
    3.6350   11.1026   19.7972 Cl  0  0  0  0  0  0  0  0  0  0  0  0
    4.9399    6.7122   19.6287 F   0  0  0  0  0  0  0  0  0  0  0  0
    8.4616    9.2026   23.1251 O   0  0  0  0  0  0  0  0  0  0  0  0
   12.1336   10.7410   19.4546 He  0  0  0  0  0  0  0  0  0  0  0  0
    1.2806    8.4071   19.8578 He  0  0  0  0  0  0  0  0  0  0  0  0
   11.3574   11.7122   19.1153 He  0  0  0  0  0  0  0  0  0  0  0  0
    7.5211    6.0194   23.6078 He  0  0  0  0  0  0  0  0  0  0  0  0
  1  3  3  0
  1 14  2  0
  1 20  3  0
  2  9  4  0
  2 14  4  0
  2 21  4  0
  3 10  4  0
  3 14  2  0
  3 18  1  0
  3 19  1  0
  3 20  1  0
  3 21  1  0
  3 24  4  0
  4  6  1  0
  4 12  2  0
  4 14  2  0
  4 15  2  0
  4 19  4  0
  4 21  2  0
  5 15  2  0
  6 12  2  0
  6 13  1  0
  6 15  2  0
  6 22  2  0
  6 23  4  0
  6 24  3  0
  7 11  2  0
  7 15  1  0
  8 15  1  0
  8 17  4  0
  8 24  3  0
  9 12  4  0
  9 22  1  0
 10 14  4  0
 10 16  4  0
 10 22  3  0
 11 12  4  0
 11 19  1  0
 12 22  2  0
 12 23  4  0
 13 16  1  0
 13 17  1  0
 13 18  2  0
 13 23  3  0
 13 24  2  0
 14 16  4  0
 16 18  1  0
 16 23  4  0
 21 23  4  0
M  END
$$$$

 Created by Python create_sdf_string function

 28 30  0  0  0  0  0  0  0  0999 V2000
   10.7841   11.3121   19.2317 C   0  0  0  0  0  0  0  0  0  0  0  0
    3.3980    8.1384   19.8413 C   0  0  0  0  0  0  0  0  0  0  0  0
   12.9650   10.5396   19.4646 C   0  0  0  0  0  0  0  0  0  0  0  0
    9.5112    4.3082   22.9662 C   0  0  0  0  0  0  0  0  0  0  0  0
   11.3199    9.4057   20.7132 C   0  0  0  0  0  0  0  0  0  0  0  0
    8.3542   11.5224   20.6172 O   0  0  0  0  0  0  0  0  0  0  0  0
    5.9074    7.8559   20.7455 C   0  0  0  0  0  0  0  0  0  0  0  0
   10.3608   10.4109   20.1770 C   0  0  0  0  0  0  0  0  0  0  0  0
    1.7043    8.2636   19.7195 Cl  0  0  0  0  0  0  0  0  0  0  0  0
    8.4731    9.2410   20.7967 N   0  0  0  0  0  0  0  0  0  0  0  0
    4.1520    9.2873   20.1065 C   0  0  0  0  0  0  0  0  0  0  0  0
   12.0292   11.3928   18.9275 C   0  0  0  0  0  0  0  0  0  0  0  0
    8.4730    4.8730   23.7127 C   0  0  0  0  0  0  0  0  0  0  0  0
   14.3298   10.8014   19.2325 C   0  0  0  0  0  0  0  0  0  0  0  0
    5.4080    9.1478   20.5485 C   0  0  0  0  0  0  0  0  0  0  0  0
    7.1247    7.5795   21.6010 C   0  0  0  0  0  0  0  0  0  0  0  0
    9.0318    6.0041   21.2937 C   0  0  0  0  0  0  0  0  0  0  0  0
    9.0674   10.5312   20.6389 C   0  0  0  0  0  0  0  0  0  0  0  0
    7.9748    6.4753   22.0497 C   0  0  0  0  0  0  0  0  0  0  0  0
    7.9428    8.8738   21.9232 C   0  0  0  0  0  0  0  0  0  0  0  0
    9.8444    4.9106   21.7542 C   0  0  0  0  0  0  0  0  0  0  0  0
    7.7073    6.0135   23.2574 C   0  0  0  0  0  0  0  0  0  0  0  0
   12.5528    9.4578   20.3016 C   0  0  0  0  0  0  0  0  0  0  0  0
   10.2115    3.1495   23.3911 F   0  0  0  0  0  0  0  0  0  0  0  0
    4.0055    6.9338   19.7408 C   0  0  0  0  0  0  0  0  0  0  0  0
    3.4529   10.8459   19.9342 Cl  0  0  0  0  0  0  0  0  0  0  0  0
    5.2664    6.7729   20.2141 C   0  0  0  0  0  0  0  0  0  0  0  0
    8.2109    9.1815   23.0918 O   0  0  0  0  0  0  0  0  0  0  0  0
  1  8  4  0
  1 12  4  0
  2  9  1  0
  2 11  4  0
  2 25  4  0
  3 12  4  0
  3 14  1  0
  3 23  4  0
  4 13  4  0
  4 21  4  0
  4 24  1  0
  5  8  4  0
  5 23  4  0
  6 18  2  0
  7 15  4  0
  7 16  1  0
  7 27  4  0
  8 18  1  0
 10 18  1  0
 10 20  1  0
 11 15  4  0
 11 26  1  0
 13 22  4  0
 16 19  1  0
 16 20  1  0
 17 19  4  0
 17 21  4  0
 19 22  4  0
 20 28  1  0
 25 27  4  0
M  END
$$$$

 Created by Python create_sdf_string function

 28 58  0  0  0  0  0  0  0  0999 V2000
   10.7083   11.2492   19.1183 C   0  0  0  0  0  0  0  0  0  0  0  0
    3.1941    8.3860   19.7817 C   0  0  0  0  0  0  0  0  0  0  0  0
   12.8589   11.0001   19.4411 C   0  0  0  0  0  0  0  0  0  0  0  0
    9.9541    3.7894   23.1485 C   0  0  0  0  0  0  0  0  0  0  0  0
   10.9671    9.3567   20.5473 O   0  0  0  0  0  0  0  0  0  0  0  0
    8.0573   10.9377   20.1322 O   0  0  0  0  0  0  0  0  0  0  0  0
    5.9806    7.6171   21.0227 C   0  0  0  0  0  0  0  0  0  0  0  0
   10.6497   10.7355   19.8970 C   0  0  0  0  0  0  0  0  0  0  0  0
    2.0008    8.4678   19.4015 Cl  0  0  0  0  0  0  0  0  0  0  0  0
    8.6978    9.7011   21.2014 N   0  0  0  0  0  0  0  0  0  0  0  0
    4.3928    8.9663   19.9049 C   0  0  0  0  0  0  0  0  0  0  0  0
   11.9540   11.0348   19.0163 C   0  0  0  0  0  0  0  0  0  0  0  0
    8.4149    4.8491   24.1593 C   0  0  0  0  0  0  0  0  0  0  0  0
   14.9404   11.3371   19.3612 C   0  0  0  0  0  0  0  0  0  0  0  0
    7.0394    7.9170   20.6935 C   0  0  0  0  0  0  0  0  0  0  0  0
    9.6376    5.8227   21.0302 C   0  0  0  0  0  0  0  0  0  0  0  0
    9.3901   10.4493   20.7445 F   0  0  0  0  0  0  0  0  0  0  0  0
    8.0004    6.4478   22.2987 C   0  0  0  0  0  0  0  0  0  0  0  0
    7.8407    9.0112   21.9361 C   0  0  0  0  0  0  0  0  0  0  0  0
    9.6237    5.0270   21.9389 C   0  0  0  0  0  0  0  0  0  0  0  0
    7.9380    5.7320   23.2938 C   0  0  0  0  0  0  0  0  0  0  0  0
   12.5987   10.0835   20.0363 C   0  0  0  0  0  0  0  0  0  0  0  0
   11.1670    3.4332   23.5926 F   0  0  0  0  0  0  0  0  0  0  0  0
    3.4930   10.8229   19.9116 Cl  0  0  0  0  0  0  0  0  0  0  0  0
    5.7905    6.8725   20.1968 C   0  0  0  0  0  0  0  0  0  0  0  0
    8.0022    9.4764   23.0816 O   0  0  0  0  0  0  0  0  0  0  0  0
    5.2811    8.9534   20.5275 He  0  0  0  0  0  0  0  0  0  0  0  0
    3.9219    6.4181   19.8024 He  0  0  0  0  0  0  0  0  0  0  0  0
  1  8  4  0
  1 12  4  0
  1 14  1  0
  1 15  3  0
  1 25  4  0
  2  9  1  0
  2 11  4  0
  2 20  2  0
  3 12  4  0
  3 14  1  0
  3 15  4  0
  3 24  1  0
  4  6  4  0
  4  8  3  0
  4 13  4  0
  4 19  1  0
  5  8  4  0
  5 12  1  0
  5 16  1  0
  5 18  3  0
  5 20  4  0
  5 22  4  0
  5 25  1  0
  6  7  1  0
  6  9  4  0
  6 17  2  0
  6 22  3  0
  7  8  3  0
  7 15  1  0
  7 22  1  0
  7 25  4  0
  8 18  1  0
  8 25  3  0
  9 13  3  0
  9 18  3  0
 10 17  1  0
 10 18  3  0
 10 19  1  0
 10 23  3  0
 11 24  1  0
 11 25  2  0
 12 25  4  0
 13 18  1  0
 13 19  1  0
 13 21  4  0
 14 23  4  0
 15 17  3  0
 15 19  1  0
 15 22  1  0
 16 19  1  0
 16 20  4  0
 17 18  3  0
 18 20  1  0
 18 21  4  0
 19 20  3  0
 20 22  1  0
 22 25  4  0
 24 25  4  0
M  END
$$$$

 Created by Python create_sdf_string function

 28 30  0  0  0  0  0  0  0  0999 V2000
   10.8199   11.4418   19.0644 C   0  0  0  0  0  0  0  0  0  0  0  0
    3.4315    8.0218   19.7093 C   0  0  0  0  0  0  0  0  0  0  0  0
   13.1337   10.8230   19.4368 C   0  0  0  0  0  0  0  0  0  0  0  0
    9.7293    4.4430   23.1379 C   0  0  0  0  0  0  0  0  0  0  0  0
   11.4270    9.6696   20.6347 C   0  0  0  0  0  0  0  0  0  0  0  0
    8.2398   11.1853   20.0855 O   0  0  0  0  0  0  0  0  0  0  0  0
    6.0193    7.7540   20.7388 C   0  0  0  0  0  0  0  0  0  0  0  0
   10.4655   10.5074   20.0169 C   0  0  0  0  0  0  0  0  0  0  0  0
    1.8022    8.1744   19.1881 Cl  0  0  0  0  0  0  0  0  0  0  0  0
    8.7869    9.3345   21.2130 N   0  0  0  0  0  0  0  0  0  0  0  0
    4.1881    9.1850   20.0429 C   0  0  0  0  0  0  0  0  0  0  0  0
   12.1680   11.5922   18.8073 C   0  0  0  0  0  0  0  0  0  0  0  0
    8.6685    4.8613   23.8700 C   0  0  0  0  0  0  0  0  0  0  0  0
   14.6346   11.1488   19.1899 C   0  0  0  0  0  0  0  0  0  0  0  0
    5.4342    9.0675   20.5477 C   0  0  0  0  0  0  0  0  0  0  0  0
    7.2720    7.5263   21.4362 C   0  0  0  0  0  0  0  0  0  0  0  0
    9.2905    5.9375   21.2980 C   0  0  0  0  0  0  0  0  0  0  0  0
    9.0815   10.4081   20.4363 C   0  0  0  0  0  0  0  0  0  0  0  0
    8.1699    6.3508   22.1053 C   0  0  0  0  0  0  0  0  0  0  0  0
    7.8126    8.7783   21.9786 C   0  0  0  0  0  0  0  0  0  0  0  0
   10.0240    4.9142   21.9287 C   0  0  0  0  0  0  0  0  0  0  0  0
    7.8662    5.9030   23.3934 C   0  0  0  0  0  0  0  0  0  0  0  0
   12.7242    9.8179   20.2923 C   0  0  0  0  0  0  0  0  0  0  0  0
   10.6915    3.3735   23.7114 F   0  0  0  0  0  0  0  0  0  0  0  0
    4.0406    6.7987   19.7676 C   0  0  0  0  0  0  0  0  0  0  0  0
    3.4510   10.7333   19.8160 Cl  0  0  0  0  0  0  0  0  0  0  0  0
    5.3000    6.6882   20.2743 C   0  0  0  0  0  0  0  0  0  0  0  0
    7.5693    9.1182   23.1685 O   0  0  0  0  0  0  0  0  0  0  0  0
  1  8  4  0
  1 12  4  0
  2  9  1  0
  2 11  4  0
  2 25  4  0
  3 12  4  0
  3 14  1  0
  3 23  4  0
  4 13  4  0
  4 21  4  0
  4 24  1  0
  5  8  4  0
  5 23  4  0
  6 18  2  0
  7 15  4  0
  7 16  1  0
  7 27  4  0
  8 18  1  0
 10 18  1  0
 10 20  1  0
 11 15  4  0
 11 26  1  0
 13 22  4  0
 16 19  1  0
 16 20  1  0
 17 19  4  0
 17 21  4  0
 19 22  4  0
 20 28  2  0
 25 27  4  0
M  END
$$$$

 Created by Python create_sdf_string function

 28 47  0  0  0  0  0  0  0  0999 V2000
   10.4515   10.8051   19.3958 C   0  0  0  0  0  0  0  0  0  0  0  0
    3.1690    7.4993   19.5456 C   0  0  0  0  0  0  0  0  0  0  0  0
   13.3061   10.6470   19.5050 C   0  0  0  0  0  0  0  0  0  0  0  0
    9.4380    4.6785   23.5441 C   0  0  0  0  0  0  0  0  0  0  0  0
   11.4723   10.3139   20.4415 C   0  0  0  0  0  0  0  0  0  0  0  0
    8.0541   11.3778   19.7128 O   0  0  0  0  0  0  0  0  0  0  0  0
    6.2269    7.5153   20.8650 C   0  0  0  0  0  0  0  0  0  0  0  0
   10.7228    9.9495   20.0507 C   0  0  0  0  0  0  0  0  0  0  0  0
    1.7285    8.2078   19.4289 Cl  0  0  0  0  0  0  0  0  0  0  0  0
    4.7187    9.3878   19.5691 C   0  0  0  0  0  0  0  0  0  0  0  0
   12.0673   11.0656   18.7097 C   0  0  0  0  0  0  0  0  0  0  0  0
    5.9102    9.2851   20.8993 C   0  0  0  0  0  0  0  0  0  0  0  0
    7.1046    7.8166   21.7612 C   0  0  0  0  0  0  0  0  0  0  0  0
    9.0898    5.9905   20.9249 C   0  0  0  0  0  0  0  0  0  0  0  0
    9.3464    9.7049   20.6263 C   0  0  0  0  0  0  0  0  0  0  0  0
    8.4175    6.1875   22.4376 C   0  0  0  0  0  0  0  0  0  0  0  0
    7.8323    8.5965   21.4205 C   0  0  0  0  0  0  0  0  0  0  0  0
   10.2885    5.1288   21.9666 Br  0  0  0  0  0  0  0  0  0  0  0  0
    7.7817    6.8108   23.0818 C   0  0  0  0  0  0  0  0  0  0  0  0
   13.3310    9.4426   20.0308 C   0  0  0  0  0  0  0  0  0  0  0  0
   11.0453    3.8560   24.1028 O   0  0  0  0  0  0  0  0  0  0  0  0
    4.5818    6.8858   20.0581 C   0  0  0  0  0  0  0  0  0  0  0  0
    7.8416    9.5888   23.0096 F   0  0  0  0  0  0  0  0  0  0  0  0
    9.0684    9.6959   22.1568 He  0  0  0  0  0  0  0  0  0  0  0  0
    9.4420    5.4812   23.9621 He  0  0  0  0  0  0  0  0  0  0  0  0
   14.9215   11.3287   19.2632 He  0  0  0  0  0  0  0  0  0  0  0  0
    3.0382   10.8885   19.6724 He  0  0  0  0  0  0  0  0  0  0  0  0
    5.2576    6.4444   20.3195 He  0  0  0  0  0  0  0  0  0  0  0  0
  1  4  1  0
  1  7  4  0
  1  8  4  0
  1 11  4  0
  1 14  4  0
  1 23  1  0
  2  5  2  0
  2  9  1  0
  2 18  4  0
  3  7  4  0
  3 15  1  0
  3 18  1  0
  3 20  3  0
  4  8  3  0
  4 12  1  0
  4 18  4  0
  4 20  4  0
  5  8  4  0
  5  9  1  0
  5 20  4  0
  6 15  2  0
  6 21  2  0
  7 11  4  0
  7 12  4  0
  7 13  1  0
  7 21  3  0
  8 13  3  0
  9 23  4  0
 10 11  2  0
 10 12  4  0
 11 19  2  0
 11 20  1  0
 12 18  4  0
 12 20  4  0
 13 16  1  0
 13 17  1  0
 13 18  3  0
 14 16  2  0
 14 17  1  0
 14 18  4  0
 15 19  3  0
 16 19  4  0
 16 21  4  0
 16 23  1  0
 17 22  1  0
 18 19  3  0
 19 20  4  0
M  END
$$$$

 Created by Python create_sdf_string function

 28 30  0  0  0  0  0  0  0  0999 V2000
   10.9580   11.0932   18.9677 C   0  0  0  0  0  0  0  0  0  0  0  0
    3.5775    7.9344   19.7240 C   0  0  0  0  0  0  0  0  0  0  0  0
   13.3306   10.6996   19.3986 C   0  0  0  0  0  0  0  0  0  0  0  0
    9.9962    4.8363   23.3097 C   0  0  0  0  0  0  0  0  0  0  0  0
   11.7072    9.6134   20.7674 C   0  0  0  0  0  0  0  0  0  0  0  0
    8.4159   10.9349   20.0067 O   0  0  0  0  0  0  0  0  0  0  0  0
    6.0701    7.7819   20.8493 C   0  0  0  0  0  0  0  0  0  0  0  0
   10.6931   10.3275   20.0785 C   0  0  0  0  0  0  0  0  0  0  0  0
    2.0422    8.0223   19.2183 Cl  0  0  0  0  0  0  0  0  0  0  0  0
    8.9986    9.3346   21.4990 N   0  0  0  0  0  0  0  0  0  0  0  0
    4.3189    9.1023   19.9849 C   0  0  0  0  0  0  0  0  0  0  0  0
   12.3052   11.2693   18.6522 C   0  0  0  0  0  0  0  0  0  0  0  0
    9.0821    5.5030   24.0720 C   0  0  0  0  0  0  0  0  0  0  0  0
   14.7892   11.0483   19.0404 O   0  0  0  0  0  0  0  0  0  0  0  0
    5.5307    9.0285   20.5279 C   0  0  0  0  0  0  0  0  0  0  0  0
    7.3971    7.7047   21.6093 C   0  0  0  0  0  0  0  0  0  0  0  0
    9.0842    5.9812   21.3641 C   0  0  0  0  0  0  0  0  0  0  0  0
    9.3163   10.2889   20.5481 C   0  0  0  0  0  0  0  0  0  0  0  0
    8.2213    6.6271   22.1645 C   0  0  0  0  0  0  0  0  0  0  0  0
    7.8728    9.0393   22.0711 N   0  0  0  0  0  0  0  0  0  0  0  0
   10.0405    5.0143   21.9516 C   0  0  0  0  0  0  0  0  0  0  0  0
    8.2031    6.4247   23.4679 C   0  0  0  0  0  0  0  0  0  0  0  0
   12.9877    9.8306   20.4366 C   0  0  0  0  0  0  0  0  0  0  0  0
   10.9242    3.8802   23.9793 O   0  0  0  0  0  0  0  0  0  0  0  0
    4.2055    6.7403   19.9284 C   0  0  0  0  0  0  0  0  0  0  0  0
    3.6067   10.5698   19.5503 Cl  0  0  0  0  0  0  0  0  0  0  0  0
    5.4297    6.6674   20.5310 C   0  0  0  0  0  0  0  0  0  0  0  0
    7.4424    9.6435   23.1138 O   0  0  0  0  0  0  0  0  0  0  0  0
  1  8  4  0
  1 12  4  0
  2  9  1  0
  2 11  4  0
  2 25  4  0
  3 12  4  0
  3 14  1  0
  3 23  4  0
  4 13  4  0
  4 21  4  0
  4 24  1  0
  5  8  4  0
  5 23  4  0
  6 18  2  0
  7 15  4  0
  7 16  1  0
  7 27  4  0
  8 18  1  0
 10 18  1  0
 10 20  1  0
 11 15  4  0
 11 26  1  0
 13 22  4  0
 16 19  1  0
 16 20  1  0
 17 19  4  0
 17 21  4  0
 19 22  4  0
 20 28  1  0
 25 27  4  0
M  END
$$$$

 Created by Python create_sdf_string function

 28 69  0  0  0  0  0  0  0  0999 V2000
   11.4197   10.9398   18.9182 C   0  0  0  0  0  0  0  0  0  0  0  0
    3.7489    8.0889   19.5068 C   0  0  0  0  0  0  0  0  0  0  0  0
   13.8550   10.9540   19.4877 C   0  0  0  0  0  0  0  0  0  0  0  0
    9.8320    5.4868   22.5905 C   0  0  0  0  0  0  0  0  0  0  0  0
   11.5285    9.3164   20.9069 C   0  0  0  0  0  0  0  0  0  0  0  0
    8.1956   10.6966   20.3782 O   0  0  0  0  0  0  0  0  0  0  0  0
    6.1245    7.7632   21.0697 C   0  0  0  0  0  0  0  0  0  0  0  0
    1.7673    7.9166   19.0087 Cl  0  0  0  0  0  0  0  0  0  0  0  0
    8.9684    9.2797   20.7637 N   0  0  0  0  0  0  0  0  0  0  0  0
    4.4929    9.0710   20.2832 C   0  0  0  0  0  0  0  0  0  0  0  0
   12.1920   10.9125   18.3184 C   0  0  0  0  0  0  0  0  0  0  0  0
    9.1716    5.8040   24.5585 C   0  0  0  0  0  0  0  0  0  0  0  0
   14.7903   11.2051   19.1528 O   0  0  0  0  0  0  0  0  0  0  0  0
    5.7068    8.7545   20.0586 Cl  0  0  0  0  0  0  0  0  0  0  0  0
    7.8339    7.5310   21.7182 C   0  0  0  0  0  0  0  0  0  0  0  0
    9.4589    5.6776   21.7911 C   0  0  0  0  0  0  0  0  0  0  0  0
    9.3608   10.0828   20.3858 C   0  0  0  0  0  0  0  0  0  0  0  0
    8.0030    6.8126   22.0952 C   0  0  0  0  0  0  0  0  0  0  0  0
    7.8771    8.7704   22.3427 N   0  0  0  0  0  0  0  0  0  0  0  0
    9.8071    4.8125   21.3814 C   0  0  0  0  0  0  0  0  0  0  0  0
    8.3898    6.8534   23.4212 C   0  0  0  0  0  0  0  0  0  0  0  0
   12.6888    9.5653   20.2035 C   0  0  0  0  0  0  0  0  0  0  0  0
   10.2765    4.0008   24.1981 C   0  0  0  0  0  0  0  0  0  0  0  0
    3.7436    6.6689   20.0245 C   0  0  0  0  0  0  0  0  0  0  0  0
    3.9252   10.3988   19.6930 Cl  0  0  0  0  0  0  0  0  0  0  0  0
    5.2763    6.5946   20.3833 C   0  0  0  0  0  0  0  0  0  0  0  0
    7.0097    9.6855   23.3517 O   0  0  0  0  0  0  0  0  0  0  0  0
   10.7499   10.0366   20.5664 He  0  0  0  0  0  0  0  0  0  0  0  0
  1  9  1  0
  1 11  4  0
  1 12  3  0
  1 14  1  0
  1 23  4  0
  1 27  1  0
  2  7  3  0
  2 10  4  0
  2 16  2  0
  3 11  4  0
  3 13  1  0
  3 15  4  0
  3 22  4  0
  4  6  2  0
  4 11  4  0
  4 12  4  0
  4 20  4  0
  4 21  1  0
  4 23  1  0
  5 17  4  0
  5 22  4  0
  6 15  4  0
  6 17  2  0
  6 18  4  0
  6 26  1  0
  7 12  4  0
  7 14  4  0
  7 15  1  0
  7 20  3  0
  7 27  1  0
  8 17  1  0
  8 20  2  0
  8 27  4  0
  9 14  1  0
  9 17  1  0
  9 19  1  0
  9 21  4  0
  9 26  4  0
 10 14  4  0
 10 23  1  0
 10 24  1  0
 10 25  1  0
 11 26  2  0
 11 27  4  0
 12 13  2  0
 12 23  3  0
 12 24  1  0
 12 26  4  0
 13 18  2  0
 14 17  1  0
 14 26  4  0
 15 17  1  0
 15 18  1  0
 15 19  1  0
 15 20  4  0
 15 25  4  0
 15 26  2  0
 16 18  4  0
 16 20  4  0
 16 22  1  0
 17 22  2  0
 18 20  3  0
 18 21  2  0
 18 22  1  0
 19 27  2  0
 22 23  1  0
 22 25  4  0
 23 26  4  0
 24 26  4  0
M  END
$$$$

 Created by Python create_sdf_string function

 28 30  0  0  0  0  0  0  0  0999 V2000
   11.0682   11.0147   18.9841 C   0  0  0  0  0  0  0  0  0  0  0  0
    3.5728    7.8738   19.6770 C   0  0  0  0  0  0  0  0  0  0  0  0
   13.3781   10.5847   19.3925 C   0  0  0  0  0  0  0  0  0  0  0  0
    9.9050    4.9013   23.3393 C   0  0  0  0  0  0  0  0  0  0  0  0
   11.7296    9.4959   20.7662 C   0  0  0  0  0  0  0  0  0  0  0  0
    8.5103   11.0202   20.1331 O   0  0  0  0  0  0  0  0  0  0  0  0
    5.9949    7.6834   20.8616 C   0  0  0  0  0  0  0  0  0  0  0  0
   10.7589   10.2167   20.0541 C   0  0  0  0  0  0  0  0  0  0  0  0
    2.0344    8.0401   19.0785 Cl  0  0  0  0  0  0  0  0  0  0  0  0
    8.9511    9.2591   21.2479 N   0  0  0  0  0  0  0  0  0  0  0  0
    4.3686    9.0219   19.8918 C   0  0  0  0  0  0  0  0  0  0  0  0
   12.3868   11.1969   18.6551 C   0  0  0  0  0  0  0  0  0  0  0  0
    9.2244    5.7653   24.1118 C   0  0  0  0  0  0  0  0  0  0  0  0
   14.7197   10.8435   19.0985 O   0  0  0  0  0  0  0  0  0  0  0  0
    5.5355    8.9439   20.4173 C   0  0  0  0  0  0  0  0  0  0  0  0
    7.2915    7.6514   21.5693 C   0  0  0  0  0  0  0  0  0  0  0  0
    8.9160    5.9122   21.3595 C   0  0  0  0  0  0  0  0  0  0  0  0
    9.3612   10.1994   20.5112 C   0  0  0  0  0  0  0  0  0  0  0  0
    8.1510    6.6786   22.1563 C   0  0  0  0  0  0  0  0  0  0  0  0
    7.7545    9.0866   22.0545 N   0  0  0  0  0  0  0  0  0  0  0  0
    9.8099    4.9779   21.9659 C   0  0  0  0  0  0  0  0  0  0  0  0
    8.3308    6.7205   23.5636 C   0  0  0  0  0  0  0  0  0  0  0  0
   13.0529    9.7386   20.4208 C   0  0  0  0  0  0  0  0  0  0  0  0
   10.6837    3.9170   23.9544 O   0  0  0  0  0  0  0  0  0  0  0  0
    4.0580    6.6066   19.9931 C   0  0  0  0  0  0  0  0  0  0  0  0
    3.7358   10.5498   19.4422 Cl  0  0  0  0  0  0  0  0  0  0  0  0
    5.2534    6.5157   20.6182 C   0  0  0  0  0  0  0  0  0  0  0  0
    7.2529    9.6940   23.0005 O   0  0  0  0  0  0  0  0  0  0  0  0
  1  8  4  0
  1 12  4  0
  2  9  1  0
  2 11  4  0
  2 25  4  0
  3 12  4  0
  3 14  1  0
  3 23  4  0
  4 13  4  0
  4 21  4  0
  4 24  1  0
  5  8  4  0
  5 23  4  0
  6 18  2  0
  7 15  4  0
  7 16  1  0
  7 27  4  0
  8 18  1  0
 10 18  1  0
 10 20  1  0
 11 15  4  0
 11 26  1  0
 13 22  4  0
 16 19  1  0
 16 20  1  0
 17 19  4  0
 17 21  4  0
 19 22  4  0
 20 28  2  0
 25 27  4  0
M  END
$$$$

 Created by Python create_sdf_string function

 28 50  0  0  0  0  0  0  0  0999 V2000
   11.2738   11.1658   19.1440 C   0  0  0  0  0  0  0  0  0  0  0  0
    3.7940    8.2759   19.5460 C   0  0  0  0  0  0  0  0  0  0  0  0
   13.3719   10.4390   19.2733 C   0  0  0  0  0  0  0  0  0  0  0  0
    9.8350    4.5316   22.9902 C   0  0  0  0  0  0  0  0  0  0  0  0
   11.6529    9.3875   20.6759 C   0  0  0  0  0  0  0  0  0  0  0  0
    8.7802   11.2231   19.9098 O   0  0  0  0  0  0  0  0  0  0  0  0
    6.5683    8.4952   20.9273 C   0  0  0  0  0  0  0  0  0  0  0  0
   11.1142    9.8115   20.0971 C   0  0  0  0  0  0  0  0  0  0  0  0
    2.2085    8.2929   19.5493 Cl  0  0  0  0  0  0  0  0  0  0  0  0
    8.7994    8.9017   21.7981 C   0  0  0  0  0  0  0  0  0  0  0  0
    4.0010    8.5939   19.8213 C   0  0  0  0  0  0  0  0  0  0  0  0
   12.6187   11.2837   18.7724 C   0  0  0  0  0  0  0  0  0  0  0  0
    9.5289    5.0832   24.5408 C   0  0  0  0  0  0  0  0  0  0  0  0
   14.7155   10.2804   19.2509 O   0  0  0  0  0  0  0  0  0  0  0  0
    7.6286    7.7652   20.8684 C   0  0  0  0  0  0  0  0  0  0  0  0
    8.8813    6.5719   22.1955 C   0  0  0  0  0  0  0  0  0  0  0  0
    7.9684    8.7730   22.0959 N   0  0  0  0  0  0  0  0  0  0  0  0
    9.5850    5.0754   21.8140 C   0  0  0  0  0  0  0  0  0  0  0  0
    8.1090    6.7309   23.9935 C   0  0  0  0  0  0  0  0  0  0  0  0
   13.6669    9.8094   20.6311 C   0  0  0  0  0  0  0  0  0  0  0  0
   10.3289    3.6097   23.9285 O   0  0  0  0  0  0  0  0  0  0  0  0
    4.0318    6.6280   19.6540 C   0  0  0  0  0  0  0  0  0  0  0  0
    5.5519    6.4134   20.5617 C   0  0  0  0  0  0  0  0  0  0  0  0
    6.7254    9.7400   23.1472 Cl  0  0  0  0  0  0  0  0  0  0  0  0
    5.8149    9.2614   19.9653 He  0  0  0  0  0  0  0  0  0  0  0  0
    8.6701    5.9625   21.4793 He  0  0  0  0  0  0  0  0  0  0  0  0
    9.3344   10.8099   20.6363 He  0  0  0  0  0  0  0  0  0  0  0  0
    3.6754   10.3701   19.2328 He  0  0  0  0  0  0  0  0  0  0  0  0
  1  8  4  0
  1  9  1  0
  1 12  4  0
  1 13  1  0
  1 16  3  0
  2  3  4  0
  2  6  1  0
  2  9  1  0
  2 11  4  0
  2 13  2  0
  2 16  1  0
  2 18  2  0
  2 19  1  0
  2 20  1  0
  2 21  3  0
  2 22  4  0
  3 14  1  0
  4  6  2  0
  4  8  3  0
  4 13  4  0
  4 17  1  0
  4 18  4  0
  4 21  1  0
  5  8  4  0
  5 20  4  0
  5 21  4  0
  6 20  1  0
  6 23  1  0
  7 23  4  0
  9 12  3  0
 10 16  4  0
 10 17  1  0
 10 20  3  0
 11 21  1  0
 12 23  2  0
 13 19  4  0
 14 16  2  0
 14 23  4  0
 15 16  1  0
 15 17  1  0
 16 19  4  0
 16 24  4  0
 17 18  1  0
 17 24  2  0
 18 19  3  0
 19 22  4  0
 19 23  3  0
 20 22  4  0
 22 23  4  0
 23 24  3  0
M  END
$$$$

 Created by Python create_sdf_string function

 28 30  0  0  0  0  0  0  0  0999 V2000
   11.2965   11.1160   19.1632 C   0  0  0  0  0  0  0  0  0  0  0  0
    3.6358    7.9591   19.6346 C   0  0  0  0  0  0  0  0  0  0  0  0
   13.5756   10.3787   19.4881 C   0  0  0  0  0  0  0  0  0  0  0  0
    9.7453    4.6155   23.2787 C   0  0  0  0  0  0  0  0  0  0  0  0
   11.8979    9.4865   20.8995 C   0  0  0  0  0  0  0  0  0  0  0  0
    8.7030   11.0791   20.0783 O   0  0  0  0  0  0  0  0  0  0  0  0
    6.1809    7.9111   20.6939 C   0  0  0  0  0  0  0  0  0  0  0  0
   10.9650   10.3083   20.2021 C   0  0  0  0  0  0  0  0  0  0  0  0
    2.1112    8.0537   19.2364 Cl  0  0  0  0  0  0  0  0  0  0  0  0
    9.1927    9.4495   21.6416 C   0  0  0  0  0  0  0  0  0  0  0  0
    4.4116    9.1634   19.6866 C   0  0  0  0  0  0  0  0  0  0  0  0
   12.6334   11.1415   18.8098 C   0  0  0  0  0  0  0  0  0  0  0  0
    9.1862    5.5687   24.1131 C   0  0  0  0  0  0  0  0  0  0  0  0
   14.8810   10.5055   19.1359 O   0  0  0  0  0  0  0  0  0  0  0  0
    5.6889    9.1160   20.2304 C   0  0  0  0  0  0  0  0  0  0  0  0
    7.4186    7.8034   21.5509 C   0  0  0  0  0  0  0  0  0  0  0  0
    8.9213    5.8478   21.3808 C   0  0  0  0  0  0  0  0  0  0  0  0
    9.5328   10.3287   20.5363 C   0  0  0  0  0  0  0  0  0  0  0  0
    8.3174    6.7031   22.2257 C   0  0  0  0  0  0  0  0  0  0  0  0
    7.8867    9.1206   21.9650 N   0  0  0  0  0  0  0  0  0  0  0  0
    9.6503    4.7362   21.9496 C   0  0  0  0  0  0  0  0  0  0  0  0
    8.4919    6.6682   23.6006 C   0  0  0  0  0  0  0  0  0  0  0  0
   13.2038    9.5485   20.4803 C   0  0  0  0  0  0  0  0  0  0  0  0
   10.4628    3.4942   23.7813 O   0  0  0  0  0  0  0  0  0  0  0  0
    4.2452    6.7580   19.9432 C   0  0  0  0  0  0  0  0  0  0  0  0
    3.7357   10.4898   19.1900 Cl  0  0  0  0  0  0  0  0  0  0  0  0
    5.5375    6.7562   20.4501 C   0  0  0  0  0  0  0  0  0  0  0  0
    7.0746    9.6641   22.9768 O   0  0  0  0  0  0  0  0  0  0  0  0
  1  8  4  0
  1 12  4  0
  2  9  1  0
  2 11  4  0
  2 25  4  0
  3 12  4  0
  3 14  1  0
  3 23  4  0
  4 13  4  0
  4 21  4  0
  4 24  1  0
  5  8  4  0
  5 23  4  0
  6 18  2  0
  7 15  4  0
  7 16  1  0
  7 27  4  0
  8 18  1  0
 10 18  1  0
 10 20  1  0
 11 15  4  0
 11 26  1  0
 13 22  4  0
 16 19  1  0
 16 20  1  0
 17 19  4  0
 17 21  4  0
 19 22  4  0
 20 28  1  0
 25 27  4  0
M  END
$$$$

 Created by Python create_sdf_string function

 28 39  0  0  0  0  0  0  0  0999 V2000
    3.4448    8.3202   19.8600 F   0  0  0  0  0  0  0  0  0  0  0  0
   13.4921   10.4168   19.8984 C   0  0  0  0  0  0  0  0  0  0  0  0
    9.9267    5.2091   23.4314 C   0  0  0  0  0  0  0  0  0  0  0  0
    8.5825   11.3774   20.4672 O   0  0  0  0  0  0  0  0  0  0  0  0
    5.8652    8.2155   21.1002 C   0  0  0  0  0  0  0  0  0  0  0  0
   10.9175   10.5459   20.2085 C   0  0  0  0  0  0  0  0  0  0  0  0
    2.0029    8.1325   18.8072 Cl  0  0  0  0  0  0  0  0  0  0  0  0
    9.1029    9.1114   21.7171 C   0  0  0  0  0  0  0  0  0  0  0  0
    4.4669    9.4545   19.5908 C   0  0  0  0  0  0  0  0  0  0  0  0
   12.5633   11.4315   19.0307 C   0  0  0  0  0  0  0  0  0  0  0  0
    9.6172    6.0210   23.8167 C   0  0  0  0  0  0  0  0  0  0  0  0
   14.7353   10.5797   19.3144 O   0  0  0  0  0  0  0  0  0  0  0  0
    5.8056    9.0208   20.3985 C   0  0  0  0  0  0  0  0  0  0  0  0
    8.9079    6.1582   21.2208 S   0  0  0  0  0  0  0  0  0  0  0  0
    9.7540   10.1626   20.7083 O   0  0  0  0  0  0  0  0  0  0  0  0
    8.3303    6.6290   22.1082 C   0  0  0  0  0  0  0  0  0  0  0  0
   10.0743    5.1951   22.5021 C   0  0  0  0  0  0  0  0  0  0  0  0
    8.0824    6.7185   23.4855 C   0  0  0  0  0  0  0  0  0  0  0  0
   13.3703    9.1710   20.5027 C   0  0  0  0  0  0  0  0  0  0  0  0
   10.2017    3.7214   24.2089 O   0  0  0  0  0  0  0  0  0  0  0  0
    3.7287    7.0361   19.7571 C   0  0  0  0  0  0  0  0  0  0  0  0
    4.0234   10.3421   19.1135 S   0  0  0  0  0  0  0  0  0  0  0  0
    5.9038    6.7715   20.7333 C   0  0  0  0  0  0  0  0  0  0  0  0
    7.0675    9.4095   22.7633 O   0  0  0  0  0  0  0  0  0  0  0  0
   11.7013   11.0777   19.2427 He  0  0  0  0  0  0  0  0  0  0  0  0
   11.5598    9.6793   20.6670 He  0  0  0  0  0  0  0  0  0  0  0  0
    7.6647    7.7052   21.8006 He  0  0  0  0  0  0  0  0  0  0  0  0
    8.0054    9.0486   22.6806 He  0  0  0  0  0  0  0  0  0  0  0  0
  1  2  1  0
  1  7  1  0
  1  9  4  0
  1 19  3  0
  1 21  4  0
  2 10  4  0
  2 12  1  0
  2 19  4  0
  2 21  2  0
  3 11  4  0
  3 17  4  0
  3 20  1  0
  3 24  2  0
  4  7  1  0
  4 15  1  0
  5 23  4  0
  6  9  4  0
  6 15  3  0
  7 14  3  0
  7 23  4  0
  9 20  1  0
  9 22  1  0
  9 23  3  0
 10 13  2  0
 10 16  2  0
 10 24  3  0
 11 12  3  0
 11 18  4  0
 12 18  2  0
 12 22  1  0
 13 18  4  0
 14 16  4  0
 14 17  4  0
 14 20  3  0
 16 18  3  0
 16 22  4  0
 17 21  1  0
 19 24  1  0
 21 23  4  0
M  END
$$$$

 Created by Python create_sdf_string function

 28 30  0  0  0  0  0  0  0  0999 V2000
   11.2919   11.2972   19.4506 C   0  0  0  0  0  0  0  0  0  0  0  0
    3.6798    8.0947   19.5995 C   0  0  0  0  0  0  0  0  0  0  0  0
   13.5716   10.4339   19.6312 C   0  0  0  0  0  0  0  0  0  0  0  0
    9.8858    4.9647   23.4556 C   0  0  0  0  0  0  0  0  0  0  0  0
   11.8395    9.3540   20.8323 C   0  0  0  0  0  0  0  0  0  0  0  0
    8.7414   11.2300   20.4012 O   0  0  0  0  0  0  0  0  0  0  0  0
    6.0709    7.9304   20.8954 C   0  0  0  0  0  0  0  0  0  0  0  0
   10.9625   10.3162   20.3100 C   0  0  0  0  0  0  0  0  0  0  0  0
    2.2009    8.1899   18.9986 Cl  0  0  0  0  0  0  0  0  0  0  0  0
    9.0908    9.3870   21.6866 C   0  0  0  0  0  0  0  0  0  0  0  0
    4.4878    9.2455   19.7414 C   0  0  0  0  0  0  0  0  0  0  0  0
   12.6576   11.3228   19.0517 C   0  0  0  0  0  0  0  0  0  0  0  0
    9.1443    5.8211   24.1796 C   0  0  0  0  0  0  0  0  0  0  0  0
   14.9110   10.5582   19.3389 O   0  0  0  0  0  0  0  0  0  0  0  0
    5.6455    9.1744   20.4179 C   0  0  0  0  0  0  0  0  0  0  0  0
    7.3502    7.7851   21.6757 C   0  0  0  0  0  0  0  0  0  0  0  0
    9.0024    6.0045   21.4352 C   0  0  0  0  0  0  0  0  0  0  0  0
    9.5893   10.2896   20.7574 C   0  0  0  0  0  0  0  0  0  0  0  0
    8.2231    6.7933   22.2313 C   0  0  0  0  0  0  0  0  0  0  0  0
    7.8242    9.1869   22.1450 N   0  0  0  0  0  0  0  0  0  0  0  0
    9.8774    5.0652   22.0787 C   0  0  0  0  0  0  0  0  0  0  0  0
    8.3556    6.7722   23.6082 C   0  0  0  0  0  0  0  0  0  0  0  0
   13.1547    9.4728   20.4929 C   0  0  0  0  0  0  0  0  0  0  0  0
   10.6087    3.9818   24.1142 O   0  0  0  0  0  0  0  0  0  0  0  0
    4.1486    6.8769   20.0550 C   0  0  0  0  0  0  0  0  0  0  0  0
    3.9280   10.6237   19.0521 O   0  0  0  0  0  0  0  0  0  0  0  0
    5.3153    6.7885   20.6655 C   0  0  0  0  0  0  0  0  0  0  0  0
    6.9901    9.7812   22.9094 O   0  0  0  0  0  0  0  0  0  0  0  0
  1  8  4  0
  1 12  4  0
  2  9  1  0
  2 11  4  0
  2 25  4  0
  3 12  4  0
  3 14  1  0
  3 23  4  0
  4 13  4  0
  4 21  4  0
  4 24  1  0
  5  8  4  0
  5 23  4  0
  6 18  1  0
  7 15  4  0
  7 16  1  0
  7 27  4  0
  8 18  1  0
 10 18  2  0
 10 20  1  0
 11 15  4  0
 11 26  1  0
 13 22  4  0
 16 19  1  0
 16 20  1  0
 17 19  4  0
 17 21  4  0
 19 22  4  0
 20 28  1  0
 25 27  4  0
M  END
$$$$

 Created by Python create_sdf_string function

 28 32  0  0  0  0  0  0  0  0999 V2000
   11.3908   11.6282   19.9052 C   0  0  0  0  0  0  0  0  0  0  0  0
    3.3275    8.1670   19.6661 C   0  0  0  0  0  0  0  0  0  0  0  0
   13.5651   10.2498   19.3943 C   0  0  0  0  0  0  0  0  0  0  0  0
    9.8288    5.1032   23.9908 C   0  0  0  0  0  0  0  0  0  0  0  0
    8.9535   10.8918   20.1875 N   0  0  0  0  0  0  0  0  0  0  0  0
    5.3013    8.1142   21.2635 C   0  0  0  0  0  0  0  0  0  0  0  0
   10.7870   10.5875   20.4776 C   0  0  0  0  0  0  0  0  0  0  0  0
    8.5060    9.4774   21.7126 C   0  0  0  0  0  0  0  0  0  0  0  0
    4.5818    9.1430   19.6315 C   0  0  0  0  0  0  0  0  0  0  0  0
   12.5202   11.4791   19.1713 C   0  0  0  0  0  0  0  0  0  0  0  0
    8.9930    5.7885   24.5479 C   0  0  0  0  0  0  0  0  0  0  0  0
   15.4753   10.1150   19.6964 O   0  0  0  0  0  0  0  0  0  0  0  0
    7.8115    8.1598   21.5816 C   0  0  0  0  0  0  0  0  0  0  0  0
    8.9419    5.9387   21.0214 C   0  0  0  0  0  0  0  0  0  0  0  0
    9.5774   10.3002   20.8862 C   0  0  0  0  0  0  0  0  0  0  0  0
    8.3778    6.8858   22.2353 C   0  0  0  0  0  0  0  0  0  0  0  0
    7.5509    9.3113   22.1978 N   0  0  0  0  0  0  0  0  0  0  0  0
   10.0980    5.2919   22.1945 C   0  0  0  0  0  0  0  0  0  0  0  0
   12.6242    9.6117   20.4896 C   0  0  0  0  0  0  0  0  0  0  0  0
    3.5770   10.7254   18.9169 Cl  0  0  0  0  0  0  0  0  0  0  0  0
    5.2744    6.7666   20.9572 N   0  0  0  0  0  0  0  0  0  0  0  0
    7.2063    9.6786   22.7493 O   0  0  0  0  0  0  0  0  0  0  0  0
   11.7345    9.7965   21.1237 He  0  0  0  0  0  0  0  0  0  0  0  0
    2.3443    8.3394   19.2849 He  0  0  0  0  0  0  0  0  0  0  0  0
    5.5313    9.2036   20.2657 He  0  0  0  0  0  0  0  0  0  0  0  0
    8.3992    6.6169   23.8907 He  0  0  0  0  0  0  0  0  0  0  0  0
   10.5390    4.0845   24.4606 He  0  0  0  0  0  0  0  0  0  0  0  0
    3.9641    6.8229   19.8130 He  0  0  0  0  0  0  0  0  0  0  0  0
  1  7  4  0
  1 10  4  0
  1 14  3  0
  1 19  3  0
  1 21  2  0
  2  7  4  0
  2  9  4  0
  3  6  1  0
  3  7  4  0
  3 12  1  0
  3 13  1  0
  3 19  4  0
  4 10  1  0
  4 11  4  0
  4 18  4  0
  5 15  1  0
  5 22  1  0
  6 13  1  0
  6 21  4  0
  7 15  1  0
  8 15  2  0
  8 17  1  0
  9 20  4  0
 10 11  4  0
 10 19  4  0
 12 15  3  0
 13 16  1  0
 13 18  2  0
 13 22  2  0
 14 16  4  0
 14 18  4  0
 17 22  4  0
M  END
$$$$

 Created by Python create_sdf_string function

 28 30  0  0  0  0  0  0  0  0999 V2000
   11.4389   11.4834   19.6392 C   0  0  0  0  0  0  0  0  0  0  0  0
    3.5122    8.0558   19.6427 C   0  0  0  0  0  0  0  0  0  0  0  0
   13.5921   10.3895   19.7634 C   0  0  0  0  0  0  0  0  0  0  0  0
    9.8203    5.0890   23.6697 C   0  0  0  0  0  0  0  0  0  0  0  0
   11.8078    9.4634   21.0252 C   0  0  0  0  0  0  0  0  0  0  0  0
    8.7064   11.1910   20.0837 O   0  0  0  0  0  0  0  0  0  0  0  0
    5.8557    8.0008   20.9529 C   0  0  0  0  0  0  0  0  0  0  0  0
   10.9574   10.4958   20.5017 C   0  0  0  0  0  0  0  0  0  0  0  0
    2.1903    8.1198   18.9881 O   0  0  0  0  0  0  0  0  0  0  0  0
    9.0297    9.6349   21.7328 C   0  0  0  0  0  0  0  0  0  0  0  0
    4.2885    9.2322   19.7623 C   0  0  0  0  0  0  0  0  0  0  0  0
   12.7307   11.4506   19.2865 C   0  0  0  0  0  0  0  0  0  0  0  0
    8.9951    5.8888   24.4033 C   0  0  0  0  0  0  0  0  0  0  0  0
   15.0189   10.3003   19.3322 O   0  0  0  0  0  0  0  0  0  0  0  0
    5.4364    9.2165   20.4610 C   0  0  0  0  0  0  0  0  0  0  0  0
    7.2316    7.9175   21.7052 C   0  0  0  0  0  0  0  0  0  0  0  0
    8.9992    6.1615   21.6315 C   0  0  0  0  0  0  0  0  0  0  0  0
    9.5268   10.4906   20.8792 C   0  0  0  0  0  0  0  0  0  0  0  0
    8.1467    6.8970   22.3911 C   0  0  0  0  0  0  0  0  0  0  0  0
    7.7610    9.2455   22.0037 N   0  0  0  0  0  0  0  0  0  0  0  0
    9.8665    5.2029   22.2863 C   0  0  0  0  0  0  0  0  0  0  0  0
    8.1626    6.8299   23.7827 C   0  0  0  0  0  0  0  0  0  0  0  0
   13.0683    9.4791   20.6070 C   0  0  0  0  0  0  0  0  0  0  0  0
   10.6708    4.0970   24.4091 O   0  0  0  0  0  0  0  0  0  0  0  0
    3.9918    6.9205   20.1793 C   0  0  0  0  0  0  0  0  0  0  0  0
    3.7546   10.6277   18.9306 Cl  0  0  0  0  0  0  0  0  0  0  0  0
    5.1696    6.8784   20.8358 N   0  0  0  0  0  0  0  0  0  0  0  0
    7.0160    9.8789   22.8246 O   0  0  0  0  0  0  0  0  0  0  0  0
  1  8  4  0
  1 12  4  0
  2  9  1  0
  2 11  4  0
  2 25  4  0
  3 12  4  0
  3 14  1  0
  3 23  4  0
  4 13  4  0
  4 21  4  0
  4 24  1  0
  5  8  4  0
  5 23  4  0
  6 18  1  0
  7 15  4  0
  7 16  1  0
  7 27  4  0
  8 18  1  0
 10 18  2  0
 10 20  1  0
 11 15  4  0
 11 26  1  0
 13 22  4  0
 16 19  1  0
 16 20  1  0
 17 19  4  0
 17 21  4  0
 19 22  4  0
 20 28  1  0
 25 27  4  0
M  END
$$$$

 Created by Python create_sdf_string function

 28 55  0  0  0  0  0  0  0  0999 V2000
   10.9917   11.3701   19.5936 C   0  0  0  0  0  0  0  0  0  0  0  0
    3.5321    8.1843   19.5722 C   0  0  0  0  0  0  0  0  0  0  0  0
   13.4705   10.0154   19.9785 C   0  0  0  0  0  0  0  0  0  0  0  0
   10.0418    5.1005   23.7228 C   0  0  0  0  0  0  0  0  0  0  0  0
   11.7936    9.7053   21.2028 N   0  0  0  0  0  0  0  0  0  0  0  0
    8.3489   11.2042   19.9013 O   0  0  0  0  0  0  0  0  0  0  0  0
    6.0721    7.6339   20.8356 I   0  0  0  0  0  0  0  0  0  0  0  0
   11.1442   10.8389   20.4251 C   0  0  0  0  0  0  0  0  0  0  0  0
    9.0366    9.5895   21.8909 C   0  0  0  0  0  0  0  0  0  0  0  0
    4.5141    9.5169   20.3974 C   0  0  0  0  0  0  0  0  0  0  0  0
   12.6428   11.1982   19.3661 C   0  0  0  0  0  0  0  0  0  0  0  0
    9.2694    5.7360   23.7774 C   0  0  0  0  0  0  0  0  0  0  0  0
   14.9385   10.5554   19.4053 F   0  0  0  0  0  0  0  0  0  0  0  0
    5.2937    9.5206   20.5436 C   0  0  0  0  0  0  0  0  0  0  0  0
    6.5092    7.8314   21.4256 C   0  0  0  0  0  0  0  0  0  0  0  0
    8.7133    6.0762   21.4552 P   0  0  0  0  0  0  0  0  0  0  0  0
    9.6786   10.8291   20.9398 C   0  0  0  0  0  0  0  0  0  0  0  0
    7.7082    9.4283   22.6331 N   0  0  0  0  0  0  0  0  0  0  0  0
   10.2754    4.9736   22.4687 F   0  0  0  0  0  0  0  0  0  0  0  0
    7.9462    6.8501   23.5752 C   0  0  0  0  0  0  0  0  0  0  0  0
   13.5391    9.7152   20.5935 C   0  0  0  0  0  0  0  0  0  0  0  0
   11.0116    4.5773   24.1946 O   0  0  0  0  0  0  0  0  0  0  0  0
    4.1664    6.8939   20.3207 C   0  0  0  0  0  0  0  0  0  0  0  0
    4.1941   10.2264   18.9505 Cl  0  0  0  0  0  0  0  0  0  0  0  0
    4.5554    6.8132   20.9169 N   0  0  0  0  0  0  0  0  0  0  0  0
    6.4449    9.7022   22.7063 O   0  0  0  0  0  0  0  0  0  0  0  0
    1.8480    7.8434   19.3466 He  0  0  0  0  0  0  0  0  0  0  0  0
    8.3681    6.5966   22.2516 He  0  0  0  0  0  0  0  0  0  0  0  0
  1  3  1  0
  1  5  1  0
  1  8  4  0
  1  9  3  0
  1 11  4  0
  1 17  4  0
  2 10  4  0
  2 12  1  0
  2 14  4  0
  2 18  1  0
  2 23  3  0
  2 25  4  0
  2 26  4  0
  3  4  1  0
  3 10  4  0
  3 11  4  0
  3 13  1  0
  3 15  1  0
  3 21  4  0
  4 12  4  0
  4 17  2  0
  4 19  4  0
  5  8  4  0
  5 19  4  0
  5 21  4  0
  5 25  4  0
  6  9  3  0
  6 17  1  0
  7 10  2  0
  7 14  4  0
  7 15  1  0
  7 25  4  0
  8 16  2  0
  8 17  1  0
  9 10  4  0
  9 13  4  0
  9 17  2  0
  9 18  1  0
 10 14  4  0
 10 24  1  0
 10 25  1  0
 11 18  2  0
 12 20  4  0
 12 26  2  0
 13 14  2  0
 13 24  4  0
 14 26  4  0
 15 18  1  0
 16 19  4  0
 17 26  4  0
 18 20  3  0
 18 24  2  0
 18 26  4  0
 21 23  2  0
 23 25  4  0
M  END
$$$$

 Created by Python create_sdf_string function

 28 30  0  0  0  0  0  0  0  0999 V2000
   11.3006   11.3381   19.5495 C   0  0  0  0  0  0  0  0  0  0  0  0
    3.4591    8.0790   19.8011 C   0  0  0  0  0  0  0  0  0  0  0  0
   13.5073   10.4315   19.8586 C   0  0  0  0  0  0  0  0  0  0  0  0
    9.9774    5.2146   23.4638 C   0  0  0  0  0  0  0  0  0  0  0  0
   11.8118    9.6530   21.2801 C   0  0  0  0  0  0  0  0  0  0  0  0
    8.6379   11.1852   20.2347 O   0  0  0  0  0  0  0  0  0  0  0  0
    5.8623    7.9476   21.0974 C   0  0  0  0  0  0  0  0  0  0  0  0
   10.9297   10.5073   20.6097 C   0  0  0  0  0  0  0  0  0  0  0  0
    2.0476    8.1906   19.1374 Cl  0  0  0  0  0  0  0  0  0  0  0  0
    9.0096    9.5937   21.8689 C   0  0  0  0  0  0  0  0  0  0  0  0
    4.2755    9.2280   19.8847 C   0  0  0  0  0  0  0  0  0  0  0  0
   12.6280   11.2725   19.1965 C   0  0  0  0  0  0  0  0  0  0  0  0
    9.1299    5.9081   24.2377 C   0  0  0  0  0  0  0  0  0  0  0  0
   14.9095   10.4089   19.4453 F   0  0  0  0  0  0  0  0  0  0  0  0
    5.3462    9.1836   20.6091 C   0  0  0  0  0  0  0  0  0  0  0  0
    7.2196    7.8957   21.5897 C   0  0  0  0  0  0  0  0  0  0  0  0
    8.8901    6.0803   21.4990 C   0  0  0  0  0  0  0  0  0  0  0  0
    9.5025   10.5531   21.0256 C   0  0  0  0  0  0  0  0  0  0  0  0
    8.0815    6.8371   22.2528 C   0  0  0  0  0  0  0  0  0  0  0  0
    7.7252    9.2401   22.0150 N   0  0  0  0  0  0  0  0  0  0  0  0
    9.8623    5.2447   22.1101 C   0  0  0  0  0  0  0  0  0  0  0  0
    8.1377    6.7667   23.6295 C   0  0  0  0  0  0  0  0  0  0  0  0
   13.0775    9.6411   20.8895 C   0  0  0  0  0  0  0  0  0  0  0  0
   10.9840    4.4276   24.1327 O   0  0  0  0  0  0  0  0  0  0  0  0
    3.9643    6.8763   20.3131 C   0  0  0  0  0  0  0  0  0  0  0  0
    3.8717   10.6080   19.1069 Cl  0  0  0  0  0  0  0  0  0  0  0  0
    5.1440    6.7642   20.9246 C   0  0  0  0  0  0  0  0  0  0  0  0
    6.8715    9.9573   22.7342 O   0  0  0  0  0  0  0  0  0  0  0  0
  1  8  4  0
  1 12  4  0
  2  9  1  0
  2 11  4  0
  2 25  4  0
  3 12  4  0
  3 14  1  0
  3 23  4  0
  4 13  4  0
  4 21  4  0
  4 24  1  0
  5  8  4  0
  5 23  4  0
  6 18  1  0
  7 15  4  0
  7 16  1  0
  7 27  4  0
  8 18  1  0
 10 18  2  0
 10 20  1  0
 11 15  4  0
 11 26  1  0
 13 22  4  0
 16 19  1  0
 16 20  1  0
 17 19  4  0
 17 21  4  0
 19 22  4  0
 20 28  1  0
 25 27  4  0
M  END
$$$$

 Created by Python create_sdf_string function

 28 54  0  0  0  0  0  0  0  0999 V2000
   11.3742   11.0946   19.5441 C   0  0  0  0  0  0  0  0  0  0  0  0
    3.2777    7.7351   19.7873 C   0  0  0  0  0  0  0  0  0  0  0  0
   13.3226   10.4104   19.8301 P   0  0  0  0  0  0  0  0  0  0  0  0
    9.8501    5.1189   23.2223 C   0  0  0  0  0  0  0  0  0  0  0  0
   11.6161    9.6783   21.4949 C   0  0  0  0  0  0  0  0  0  0  0  0
    6.2559    7.9521   20.6143 C   0  0  0  0  0  0  0  0  0  0  0  0
   10.7696   10.3313   20.1822 C   0  0  0  0  0  0  0  0  0  0  0  0
    2.2110    7.8494   19.2381 Cl  0  0  0  0  0  0  0  0  0  0  0  0
    9.3843    9.6607   22.2171 P   0  0  0  0  0  0  0  0  0  0  0  0
    4.1664    9.1192   20.0482 C   0  0  0  0  0  0  0  0  0  0  0  0
   12.4294   10.9729   19.2311 C   0  0  0  0  0  0  0  0  0  0  0  0
   14.1752   10.3658   19.3306 F   0  0  0  0  0  0  0  0  0  0  0  0
    4.9444    9.4483   20.3983 C   0  0  0  0  0  0  0  0  0  0  0  0
    6.7692    7.7784   21.9780 C   0  0  0  0  0  0  0  0  0  0  0  0
    9.3326   10.5202   21.0473 C   0  0  0  0  0  0  0  0  0  0  0  0
    7.6613    7.4814   22.7219 C   0  0  0  0  0  0  0  0  0  0  0  0
    7.8157    8.8480   21.8928 N   0  0  0  0  0  0  0  0  0  0  0  0
   10.2127    5.3197   22.3484 C   0  0  0  0  0  0  0  0  0  0  0  0
    8.0436    7.1133   23.3503 C   0  0  0  0  0  0  0  0  0  0  0  0
   13.0523   10.2408   21.1638 F   0  0  0  0  0  0  0  0  0  0  0  0
   11.0106    3.8975   24.6801 O   0  0  0  0  0  0  0  0  0  0  0  0
    4.2908    6.5783   20.3854 C   0  0  0  0  0  0  0  0  0  0  0  0
    3.8603   10.4374   19.2714 Cl  0  0  0  0  0  0  0  0  0  0  0  0
    4.9835    6.9427   21.0041 S   0  0  0  0  0  0  0  0  0  0  0  0
    7.0889   10.4329   22.7800 O   0  0  0  0  0  0  0  0  0  0  0  0
    8.8851   11.2665   20.2676 He  0  0  0  0  0  0  0  0  0  0  0  0
    8.8510    6.0895   24.1664 He  0  0  0  0  0  0  0  0  0  0  0  0
    8.8521    6.6347   21.2912 He  0  0  0  0  0  0  0  0  0  0  0  0
  1  7  4  0
  1  8  1  0
  1 11  4  0
  1 12  1  0
  1 14  2  0
  1 16  3  0
  2  8  1  0
  2 10  4  0
  2 12  3  0
  2 15  4  0
  2 16  1  0
  3 12  1  0
  3 17  2  0
  3 20  4  0
  3 24  3  0
  4 18  4  0
  4 21  1  0
  5  7  4  0
  5  8  4  0
  5 14  4  0
  5 15  1  0
  5 20  4  0
  5 21  3  0
  5 23  2  0
  6  7  2  0
  6 13  4  0
  6 14  1  0
  6 18  3  0
  6 20  4  0
  6 24  4  0
  7 22  1  0
  8 21  4  0
  9 15  2  0
  9 17  1  0
  9 19  2  0
  9 24  2  0
 10 13  4  0
 10 18  2  0
 11 17  3  0
 12 21  4  0
 12 23  3  0
 12 25  4  0
 13 20  1  0
 14 16  4  0
 14 17  1  0
 14 25  4  0
 16 19  4  0
 16 22  3  0
 18 21  4  0
 18 22  4  0
 18 24  4  0
 20 21  4  0
 21 23  2  0
 22 24  4  0
M  END
$$$$

 Created by Python create_sdf_string function

 28 30  0  0  0  0  0  0  0  0999 V2000
   11.1644   11.1051   19.4033 C   0  0  0  0  0  0  0  0  0  0  0  0
    3.4641    7.8483   19.7907 C   0  0  0  0  0  0  0  0  0  0  0  0
   13.4229   10.4671   19.8267 C   0  0  0  0  0  0  0  0  0  0  0  0
    9.8676    5.2195   23.5474 C   0  0  0  0  0  0  0  0  0  0  0  0
   11.8287    9.8580   21.4319 C   0  0  0  0  0  0  0  0  0  0  0  0
    8.6469   11.3391   20.4193 O   0  0  0  0  0  0  0  0  0  0  0  0
    5.8642    7.9739   21.0942 C   0  0  0  0  0  0  0  0  0  0  0  0
   10.8705   10.5102   20.6255 C   0  0  0  0  0  0  0  0  0  0  0  0
    1.9925    7.8145   19.1173 Cl  0  0  0  0  0  0  0  0  0  0  0  0
    8.9923    9.7021   21.9019 N   0  0  0  0  0  0  0  0  0  0  0  0
    4.1766    9.0668   19.8641 C   0  0  0  0  0  0  0  0  0  0  0  0
   12.4740   11.0848   19.0262 C   0  0  0  0  0  0  0  0  0  0  0  0
    8.9558    5.9044   24.2939 C   0  0  0  0  0  0  0  0  0  0  0  0
   14.7243   10.5006   19.4469 F   0  0  0  0  0  0  0  0  0  0  0  0
    5.3523    9.1408   20.5167 C   0  0  0  0  0  0  0  0  0  0  0  0
    7.1602    8.0509   21.8115 C   0  0  0  0  0  0  0  0  0  0  0  0
    9.0403    6.3843   21.5906 C   0  0  0  0  0  0  0  0  0  0  0  0
    9.4605   10.5084   21.0654 C   0  0  0  0  0  0  0  0  0  0  0  0
    8.1087    7.0095   22.3887 C   0  0  0  0  0  0  0  0  0  0  0  0
    7.6262    9.3624   22.0626 N   0  0  0  0  0  0  0  0  0  0  0  0
    9.9107    5.4410   22.1709 C   0  0  0  0  0  0  0  0  0  0  0  0
    8.0689    6.8165   23.7338 C   0  0  0  0  0  0  0  0  0  0  0  0
   13.0747    9.8288   20.9854 C   0  0  0  0  0  0  0  0  0  0  0  0
   10.8171    4.1565   24.2250 O   0  0  0  0  0  0  0  0  0  0  0  0
    4.0452    6.7048   20.3398 C   0  0  0  0  0  0  0  0  0  0  0  0
    3.4786   10.4494   19.1340 Cl  0  0  0  0  0  0  0  0  0  0  0  0
    5.2558    6.7618   20.9778 C   0  0  0  0  0  0  0  0  0  0  0  0
    6.9505   10.2919   22.6729 O   0  0  0  0  0  0  0  0  0  0  0  0
  1  8  4  0
  1 12  4  0
  2  9  1  0
  2 11  4  0
  2 25  4  0
  3 12  4  0
  3 14  1  0
  3 23  4  0
  4 13  4  0
  4 21  4  0
  4 24  1  0
  5  8  4  0
  5 23  4  0
  6 18  1  0
  7 15  4  0
  7 16  1  0
  7 27  4  0
  8 18  1  0
 10 18  2  0
 10 20  1  0
 11 15  4  0
 11 26  1  0
 13 22  4  0
 16 19  1  0
 16 20  1  0
 17 19  4  0
 17 21  4  0
 19 22  4  0
 20 28  1  0
 25 27  4  0
M  END
$$$$

 Created by Python create_sdf_string function

 28 52  0  0  0  0  0  0  0  0999 V2000
   11.2946   11.1925   19.3787 C   0  0  0  0  0  0  0  0  0  0  0  0
    3.3996    8.1365   20.1745 Se  0  0  0  0  0  0  0  0  0  0  0  0
   13.4947   10.2629   19.6348 C   0  0  0  0  0  0  0  0  0  0  0  0
   11.9382    9.9906   21.4718 C   0  0  0  0  0  0  0  0  0  0  0  0
    8.1402   11.5680   20.4520 O   0  0  0  0  0  0  0  0  0  0  0  0
    5.7910    8.1196   21.0494 C   0  0  0  0  0  0  0  0  0  0  0  0
   10.6680   10.8596   20.5946 C   0  0  0  0  0  0  0  0  0  0  0  0
    2.1344    7.6957   18.9834 F   0  0  0  0  0  0  0  0  0  0  0  0
    9.0577    9.8960   21.6991 N   0  0  0  0  0  0  0  0  0  0  0  0
    4.2233    9.1828   20.2514 C   0  0  0  0  0  0  0  0  0  0  0  0
   12.4227   10.8373   18.9580 C   0  0  0  0  0  0  0  0  0  0  0  0
    9.1911    6.1041   24.4245 C   0  0  0  0  0  0  0  0  0  0  0  0
   14.4833   10.5319   19.5843 P   0  0  0  0  0  0  0  0  0  0  0  0
    5.5145    8.8113   20.6609 C   0  0  0  0  0  0  0  0  0  0  0  0
    6.9970    8.1740   21.5315 C   0  0  0  0  0  0  0  0  0  0  0  0
    9.5329    6.3532   21.4402 C   0  0  0  0  0  0  0  0  0  0  0  0
    9.5601   10.6781   20.9713 C   0  0  0  0  0  0  0  0  0  0  0  0
    8.2247    6.9441   22.4468 C   0  0  0  0  0  0  0  0  0  0  0  0
    7.4462    9.4300   22.0242 N   0  0  0  0  0  0  0  0  0  0  0  0
    8.3506    7.1199   23.8110 C   0  0  0  0  0  0  0  0  0  0  0  0
   13.1835    9.2006   21.0889 C   0  0  0  0  0  0  0  0  0  0  0  0
   10.8579    4.0168   23.7542 O   0  0  0  0  0  0  0  0  0  0  0  0
    4.4693    6.6691   20.6391 C   0  0  0  0  0  0  0  0  0  0  0  0
    3.6150   10.5004   19.3086 Cl  0  0  0  0  0  0  0  0  0  0  0  0
    5.2766    6.8433   20.9222 C   0  0  0  0  0  0  0  0  0  0  0  0
    7.1650   10.3079   22.5973 O   0  0  0  0  0  0  0  0  0  0  0  0
   10.0191    5.1722   23.4498 He  0  0  0  0  0  0  0  0  0  0  0  0
    9.9039    5.4577   22.5049 He  0  0  0  0  0  0  0  0  0  0  0  0
  1  7  4  0
  1 12  3  0
  1 26  4  0
  2  4  1  0
  2  8  1  0
  2 10  4  0
  2 13  3  0
  2 17  1  0
  3 11  4  0
  3 13  1  0
  3 17  4  0
  3 21  4  0
  4  7  4  0
  4 20  3  0
  4 21  4  0
  5 14  3  0
  5 17  1  0
  5 22  3  0
  6  8  3  0
  6 14  4  0
  6 15  1  0
  6 16  2  0
  6 20  1  0
  6 21  3  0
  6 25  4  0
  7 10  2  0
  7 17  1  0
  7 18  3  0
  7 25  2  0
  7 26  3  0
  9 10  3  0
  9 14  2  0
  9 17  2  0
  9 19  1  0
 10 14  4  0
 10 16  3  0
 10 21  3  0
 10 24  1  0
 11 16  2  0
 12 20  4  0
 13 15  3  0
 14 20  3  0
 15 18  1  0
 15 19  1  0
 16 18  4  0
 17 19  3  0
 17 20  4  0
 18 20  4  0
 18 24  3  0
 19 26  1  0
 20 24  1  0
 23 25  4  0
M  END
$$$$

 Created by Python create_sdf_string function

 28 30  0  0  0  0  0  0  0  0999 V2000
   11.2304   11.1461   19.3776 C   0  0  0  0  0  0  0  0  0  0  0  0
    3.5033    7.8315   19.9132 C   0  0  0  0  0  0  0  0  0  0  0  0
   13.4445   10.3116   19.7879 C   0  0  0  0  0  0  0  0  0  0  0  0
    9.9755    5.2419   23.4729 C   0  0  0  0  0  0  0  0  0  0  0  0
   11.7378    9.8395   21.3714 C   0  0  0  0  0  0  0  0  0  0  0  0
    8.6088   11.6035   20.4683 O   0  0  0  0  0  0  0  0  0  0  0  0
    5.9511    7.9986   21.1317 C   0  0  0  0  0  0  0  0  0  0  0  0
   10.8447   10.5816   20.5662 C   0  0  0  0  0  0  0  0  0  0  0  0
    2.1732    7.7839   19.2481 F   0  0  0  0  0  0  0  0  0  0  0  0
    8.9939    9.7327   21.7145 N   0  0  0  0  0  0  0  0  0  0  0  0
    4.1793    9.0651   20.0107 C   0  0  0  0  0  0  0  0  0  0  0  0
   12.5441   10.9984   19.0067 C   0  0  0  0  0  0  0  0  0  0  0  0
    9.1717    6.0042   24.2737 C   0  0  0  0  0  0  0  0  0  0  0  0
   14.7621   10.2233   19.3655 O   0  0  0  0  0  0  0  0  0  0  0  0
    5.3685    9.1525   20.6364 C   0  0  0  0  0  0  0  0  0  0  0  0
    7.2992    8.0773   21.7490 C   0  0  0  0  0  0  0  0  0  0  0  0
    9.1041    6.4251   21.5516 C   0  0  0  0  0  0  0  0  0  0  0  0
    9.4627   10.7093   21.0024 C   0  0  0  0  0  0  0  0  0  0  0  0
    8.2557    7.0879   22.3742 C   0  0  0  0  0  0  0  0  0  0  0  0
    7.7043    9.4686   22.0180 N   0  0  0  0  0  0  0  0  0  0  0  0
   10.0046    5.4680   22.1105 C   0  0  0  0  0  0  0  0  0  0  0  0
    8.3089    6.9675   23.7214 C   0  0  0  0  0  0  0  0  0  0  0  0
   13.0312    9.7286   20.9678 C   0  0  0  0  0  0  0  0  0  0  0  0
   10.7683    4.1918   24.0333 O   0  0  0  0  0  0  0  0  0  0  0  0
    4.0931    6.7036   20.4708 C   0  0  0  0  0  0  0  0  0  0  0  0
    3.4419   10.4214   19.3494 Cl  0  0  0  0  0  0  0  0  0  0  0  0
    5.3200    6.7933   21.0508 C   0  0  0  0  0  0  0  0  0  0  0  0
    7.0138   10.3092   22.6919 O   0  0  0  0  0  0  0  0  0  0  0  0
  1  8  4  0
  1 12  4  0
  2  9  1  0
  2 11  4  0
  2 25  4  0
  3 12  4  0
  3 14  1  0
  3 23  4  0
  4 13  4  0
  4 21  4  0
  4 24  1  0
  5  8  4  0
  5 23  4  0
  6 18  1  0
  7 15  4  0
  7 16  1  0
  7 27  4  0
  8 18  1  0
 10 18  2  0
 10 20  1  0
 11 15  4  0
 11 26  1  0
 13 22  4  0
 16 19  1  0
 16 20  1  0
 17 19  4  0
 17 21  4  0
 19 22  4  0
 20 28  1  0
 25 27  4  0
M  END
$$$$

 Created by Python create_sdf_string function

 28 40  0  0  0  0  0  0  0  0999 V2000
   11.0016   10.8381   19.6333 C   0  0  0  0  0  0  0  0  0  0  0  0
    3.4451    7.7912   19.8697 C   0  0  0  0  0  0  0  0  0  0  0  0
   13.5281   10.1840   19.6767 C   0  0  0  0  0  0  0  0  0  0  0  0
   11.7030    9.5443   21.2036 C   0  0  0  0  0  0  0  0  0  0  0  0
    8.4702   11.8745   20.4492 O   0  0  0  0  0  0  0  0  0  0  0  0
    5.8896    8.0089   21.1755 C   0  0  0  0  0  0  0  0  0  0  0  0
    2.0320    7.7073   19.5859 F   0  0  0  0  0  0  0  0  0  0  0  0
    3.8454    9.0506   20.1379 C   0  0  0  0  0  0  0  0  0  0  0  0
   12.4596   10.9617   18.3608 C   0  0  0  0  0  0  0  0  0  0  0  0
    9.3416    5.9831   24.3042 C   0  0  0  0  0  0  0  0  0  0  0  0
   14.7882    9.9750   18.8080 O   0  0  0  0  0  0  0  0  0  0  0  0
    5.2365    9.1178   20.6409 C   0  0  0  0  0  0  0  0  0  0  0  0
    7.6326    8.0774   21.8623 C   0  0  0  0  0  0  0  0  0  0  0  0
    9.3326    6.2331   21.9626 C   0  0  0  0  0  0  0  0  0  0  0  0
    9.7058   11.0570   20.7100 C   0  0  0  0  0  0  0  0  0  0  0  0
    8.4107    7.0623   22.0527 C   0  0  0  0  0  0  0  0  0  0  0  0
    9.7754    5.2810   22.1051 C   0  0  0  0  0  0  0  0  0  0  0  0
    8.2084    6.8856   23.9299 C   0  0  0  0  0  0  0  0  0  0  0  0
   12.9737    9.4449   21.0898 C   0  0  0  0  0  0  0  0  0  0  0  0
   11.0162    4.1447   23.7243 O   0  0  0  0  0  0  0  0  0  0  0  0
    4.1532    6.6467   20.2776 C   0  0  0  0  0  0  0  0  0  0  0  0
    3.7392   10.5110   19.2688 Cl  0  0  0  0  0  0  0  0  0  0  0  0
    5.4397    6.8066   21.1148 C   0  0  0  0  0  0  0  0  0  0  0  0
    7.0099    9.9592   23.0090 B   0  0  0  0  0  0  0  0  0  0  0  0
   10.1671    5.2175   23.5092 He  0  0  0  0  0  0  0  0  0  0  0  0
   10.8863   11.0419   20.4786 He  0  0  0  0  0  0  0  0  0  0  0  0
    8.7681    9.8781   22.0234 He  0  0  0  0  0  0  0  0  0  0  0  0
    7.7662    9.3631   22.4076 He  0  0  0  0  0  0  0  0  0  0  0  0
  1  9  4  0
  2  8  4  0
  2 18  4  0
  2 23  3  0
  3  9  4  0
  3 11  1  0
  3 19  4  0
  4 10  4  0
  4 19  4  0
  5 13  4  0
  5 15  1  0
  5 19  3  0
  6 10  4  0
  6 12  4  0
  6 13  1  0
  6 23  4  0
  7  9  2  0
  8 12  2  0
  8 19  2  0
  8 20  1  0
  8 22  1  0
  9 10  1  0
  9 12  4  0
  9 14  1  0
 10 12  2  0
 10 18  4  0
 11 12  2  0
 11 17  1  0
 12 16  3  0
 13 16  1  0
 13 17  2  0
 13 21  2  0
 14 17  4  0
 14 21  1  0
 16 17  3  0
 16 18  4  0
 16 22  3  0
 19 21  2  0
 21 23  4  0
 22 23  4  0
M  END
$$$$

 Created by Python create_sdf_string function

 28 30  0  0  0  0  0  0  0  0999 V2000
   11.2138   11.0929   19.2854 C   0  0  0  0  0  0  0  0  0  0  0  0
    3.5110    7.7813   19.9786 C   0  0  0  0  0  0  0  0  0  0  0  0
   13.3908   10.1124   19.5248 C   0  0  0  0  0  0  0  0  0  0  0  0
   10.0417    5.1829   23.4312 C   0  0  0  0  0  0  0  0  0  0  0  0
   11.7619    9.8108   21.2447 C   0  0  0  0  0  0  0  0  0  0  0  0
    8.7487   11.7557   20.5122 O   0  0  0  0  0  0  0  0  0  0  0  0
    5.9883    7.9979   21.1650 C   0  0  0  0  0  0  0  0  0  0  0  0
   10.8494   10.5700   20.4994 C   0  0  0  0  0  0  0  0  0  0  0  0
    2.1825    7.7102   19.4342 F   0  0  0  0  0  0  0  0  0  0  0  0
    8.9603    9.8996   21.8599 N   0  0  0  0  0  0  0  0  0  0  0  0
    4.1827    9.0324   20.0610 C   0  0  0  0  0  0  0  0  0  0  0  0
   12.4901   10.8535   18.7859 C   0  0  0  0  0  0  0  0  0  0  0  0
    9.2520    5.9385   24.2643 C   0  0  0  0  0  0  0  0  0  0  0  0
   14.7685    9.9387   19.0085 O   0  0  0  0  0  0  0  0  0  0  0  0
    5.3818    9.1439   20.7059 C   0  0  0  0  0  0  0  0  0  0  0  0
    7.3752    8.0881   21.8020 C   0  0  0  0  0  0  0  0  0  0  0  0
    9.0468    6.3472   21.5443 C   0  0  0  0  0  0  0  0  0  0  0  0
    9.5030   10.8402   21.0270 C   0  0  0  0  0  0  0  0  0  0  0  0
    8.2831    7.0657   22.4104 C   0  0  0  0  0  0  0  0  0  0  0  0
    7.7445    9.4919   22.0877 N   0  0  0  0  0  0  0  0  0  0  0  0
    9.9615    5.3850   22.0813 C   0  0  0  0  0  0  0  0  0  0  0  0
    8.3926    6.9254   23.7502 C   0  0  0  0  0  0  0  0  0  0  0  0
   13.0336    9.5893   20.7317 C   0  0  0  0  0  0  0  0  0  0  0  0
   10.9066    4.2397   23.9549 O   0  0  0  0  0  0  0  0  0  0  0  0
    4.1673    6.6595   20.4419 C   0  0  0  0  0  0  0  0  0  0  0  0
    3.4685   10.3619   19.3417 Cl  0  0  0  0  0  0  0  0  0  0  0  0
    5.4057    6.7851   21.0018 C   0  0  0  0  0  0  0  0  0  0  0  0
    6.9695   10.0992   23.0528 O   0  0  0  0  0  0  0  0  0  0  0  0
  1  8  4  0
  1 12  4  0
  2  9  1  0
  2 11  4  0
  2 25  4  0
  3 12  4  0
  3 14  1  0
  3 23  4  0
  4 13  4  0
  4 21  4  0
  4 24  1  0
  5  8  4  0
  5 23  4  0
  6 18  1  0
  7 15  4  0
  7 16  1  0
  7 27  4  0
  8 18  1  0
 10 18  2  0
 10 20  1  0
 11 15  4  0
 11 26  1  0
 13 22  4  0
 16 19  1  0
 16 20  1  0
 17 19  4  0
 17 21  4  0
 19 22  4  0
 20 28  1  0
 25 27  4  0
M  END
$$$$

 Created by Python create_sdf_string function

 28 51  0  0  0  0  0  0  0  0999 V2000
   11.3094   11.1647   18.9956 C   0  0  0  0  0  0  0  0  0  0  0  0
    3.4839    7.9239   19.9193 C   0  0  0  0  0  0  0  0  0  0  0  0
   13.5355   10.2848   19.2402 C   0  0  0  0  0  0  0  0  0  0  0  0
   10.3031    5.0516   23.4140 C   0  0  0  0  0  0  0  0  0  0  0  0
   11.6755    9.9573   21.3605 C   0  0  0  0  0  0  0  0  0  0  0  0
    8.4785   11.9414   20.6008 O   0  0  0  0  0  0  0  0  0  0  0  0
    5.9885    7.9323   21.0141 C   0  0  0  0  0  0  0  0  0  0  0  0
   10.8895   10.5436   20.3109 C   0  0  0  0  0  0  0  0  0  0  0  0
    9.1500   10.2905   21.8310 N   0  0  0  0  0  0  0  0  0  0  0  0
    4.2561    9.2285   19.9520 C   0  0  0  0  0  0  0  0  0  0  0  0
   12.3157   10.8181   19.0996 C   0  0  0  0  0  0  0  0  0  0  0  0
    9.3297    6.2552   23.7103 F   0  0  0  0  0  0  0  0  0  0  0  0
   14.7181    9.5567   19.1590 O   0  0  0  0  0  0  0  0  0  0  0  0
    5.5201    9.2722   20.7136 C   0  0  0  0  0  0  0  0  0  0  0  0
    7.0939    8.1267   21.5666 N   0  0  0  0  0  0  0  0  0  0  0  0
    9.1965    6.3969   21.3095 O   0  0  0  0  0  0  0  0  0  0  0  0
    9.5938   10.5774   21.0694 C   0  0  0  0  0  0  0  0  0  0  0  0
    8.5039    7.3658   22.3934 C   0  0  0  0  0  0  0  0  0  0  0  0
    7.9826    9.4903   21.9206 N   0  0  0  0  0  0  0  0  0  0  0  0
    9.7991    5.6694   22.2186 C   0  0  0  0  0  0  0  0  0  0  0  0
    8.3526    7.0222   23.5272 C   0  0  0  0  0  0  0  0  0  0  0  0
   13.2414    9.6928   20.2096 C   0  0  0  0  0  0  0  0  0  0  0  0
   10.8912    4.0283   23.7601 O   0  0  0  0  0  0  0  0  0  0  0  0
    4.3181    6.1170   19.9957 C   0  0  0  0  0  0  0  0  0  0  0  0
    3.8527   10.2836   19.6708 Cl  0  0  0  0  0  0  0  0  0  0  0  0
    5.4453    6.8361   20.8598 C   0  0  0  0  0  0  0  0  0  0  0  0
    6.8243    9.8275   23.2508 O   0  0  0  0  0  0  0  0  0  0  0  0
    2.1923    7.7228   19.9555 He  0  0  0  0  0  0  0  0  0  0  0  0
  1  2  1  0
  1  6  4  0
  1  8  4  0
  1 11  4  0
  1 21  2  0
  2  8  4  0
  2 10  4  0
  2 24  4  0
  3 11  4  0
  3 13  1  0
  3 15  1  0
  3 22  4  0
  4 12  3  0
  4 20  4  0
  4 21  4  0
  4 23  1  0
  4 26  3  0
  5  8  4  0
  5 10  3  0
  5 22  4  0
  5 23  3  0
  5 25  4  0
  6 17  1  0
  6 18  3  0
  6 21  3  0
  7 14  4  0
  7 15  1  0
  7 26  4  0
  8 18  1  0
  8 25  2  0
  9 17  2  0
  9 19  1  0
  9 20  3  0
 10 14  4  0
 10 17  2  0
 10 25  1  0
 11 20  1  0
 12 18  3  0
 14 18  1  0
 14 20  2  0
 14 21  4  0
 15 18  1  0
 15 19  1  0
 15 23  4  0
 16 18  4  0
 16 20  4  0
 18 21  4  0
 19 27  1  0
 21 24  1  0
 24 25  1  0
 24 26  4  0
M  END
$$$$

 Created by Python create_sdf_string function

 28 30  0  0  0  0  0  0  0  0999 V2000
   11.2308   11.1587   19.2095 C   0  0  0  0  0  0  0  0  0  0  0  0
    3.6127    7.8051   19.9819 C   0  0  0  0  0  0  0  0  0  0  0  0
   13.4129   10.1099   19.4431 C   0  0  0  0  0  0  0  0  0  0  0  0
   10.0412    5.2714   23.2402 C   0  0  0  0  0  0  0  0  0  0  0  0
   11.7714    9.8489   21.1639 C   0  0  0  0  0  0  0  0  0  0  0  0
    8.7968   11.8174   20.4915 O   0  0  0  0  0  0  0  0  0  0  0  0
    6.1408    8.0221   21.0228 C   0  0  0  0  0  0  0  0  0  0  0  0
   10.8995   10.6197   20.4181 C   0  0  0  0  0  0  0  0  0  0  0  0
    2.1695    7.7547   19.5797 O   0  0  0  0  0  0  0  0  0  0  0  0
    9.0273    9.9357   21.8113 N   0  0  0  0  0  0  0  0  0  0  0  0
    4.2415    9.0674   20.0845 C   0  0  0  0  0  0  0  0  0  0  0  0
   12.5059   10.8775   18.7143 C   0  0  0  0  0  0  0  0  0  0  0  0
    9.3362    6.0586   24.0687 C   0  0  0  0  0  0  0  0  0  0  0  0
   14.6561    9.8374   18.9651 O   0  0  0  0  0  0  0  0  0  0  0  0
    5.4768    9.1679   20.6516 C   0  0  0  0  0  0  0  0  0  0  0  0
    7.4430    8.1421   21.6465 C   0  0  0  0  0  0  0  0  0  0  0  0
    9.0775    6.4626   21.3407 C   0  0  0  0  0  0  0  0  0  0  0  0
    9.5515   10.8034   20.9795 C   0  0  0  0  0  0  0  0  0  0  0  0
    8.3226    7.1847   22.2202 C   0  0  0  0  0  0  0  0  0  0  0  0
    7.7769    9.5545   22.0999 N   0  0  0  0  0  0  0  0  0  0  0  0
    9.9664    5.4887   21.9053 C   0  0  0  0  0  0  0  0  0  0  0  0
    8.4804    7.0616   23.5855 C   0  0  0  0  0  0  0  0  0  0  0  0
   13.0419    9.6302   20.6518 C   0  0  0  0  0  0  0  0  0  0  0  0
   10.8388    4.2433   23.7245 O   0  0  0  0  0  0  0  0  0  0  0  0
    4.3337    6.6509   20.2562 C   0  0  0  0  0  0  0  0  0  0  0  0
    3.5238   10.3646   19.5108 Cl  0  0  0  0  0  0  0  0  0  0  0  0
    5.6054    6.7829   20.7894 C   0  0  0  0  0  0  0  0  0  0  0  0
    6.9542    9.9676   23.1418 O   0  0  0  0  0  0  0  0  0  0  0  0
  1  8  4  0
  1 12  4  0
  2  9  1  0
  2 11  4  0
  2 25  4  0
  3 12  4  0
  3 14  1  0
  3 23  4  0
  4 13  4  0
  4 21  4  0
  4 24  1  0
  5  8  4  0
  5 23  4  0
  6 18  1  0
  7 15  4  0
  7 16  1  0
  7 27  4  0
  8 18  1  0
 10 18  2  0
 10 20  1  0
 11 15  4  0
 11 26  1  0
 13 22  4  0
 16 19  1  0
 16 20  1  0
 17 19  4  0
 17 21  4  0
 19 22  4  0
 20 28  1  0
 25 27  4  0
M  END
$$$$

 Created by Python create_sdf_string function

 28 46  0  0  0  0  0  0  0  0999 V2000
   11.1544   10.8552   19.1940 Cl  0  0  0  0  0  0  0  0  0  0  0  0
    3.3819    7.7086   19.9356 C   0  0  0  0  0  0  0  0  0  0  0  0
   13.3639   10.2157   19.6820 C   0  0  0  0  0  0  0  0  0  0  0  0
    9.6467    5.4723   23.2818 C   0  0  0  0  0  0  0  0  0  0  0  0
   11.9278    9.8374   21.1700 C   0  0  0  0  0  0  0  0  0  0  0  0
    8.7973   11.8409   20.1519 F   0  0  0  0  0  0  0  0  0  0  0  0
    6.4125    8.1532   21.0674 C   0  0  0  0  0  0  0  0  0  0  0  0
   10.8657   10.4731   20.1630 C   0  0  0  0  0  0  0  0  0  0  0  0
    2.0521    7.5656   19.4885 O   0  0  0  0  0  0  0  0  0  0  0  0
    9.0420   10.0748   21.6921 N   0  0  0  0  0  0  0  0  0  0  0  0
   12.2138   11.2328   18.6986 C   0  0  0  0  0  0  0  0  0  0  0  0
    9.1320    5.8789   23.8937 C   0  0  0  0  0  0  0  0  0  0  0  0
   14.6644    9.7328   18.9208 O   0  0  0  0  0  0  0  0  0  0  0  0
    5.6262    8.9331   20.7758 C   0  0  0  0  0  0  0  0  0  0  0  0
    7.4351    8.4944   21.6513 C   0  0  0  0  0  0  0  0  0  0  0  0
    9.0007    6.5198   21.0475 S   0  0  0  0  0  0  0  0  0  0  0  0
    8.6345    7.3457   22.0323 C   0  0  0  0  0  0  0  0  0  0  0  0
    8.1411    9.8543   21.7744 N   0  0  0  0  0  0  0  0  0  0  0  0
    8.2897    6.8877   23.5313 C   0  0  0  0  0  0  0  0  0  0  0  0
   12.8322    9.9022   20.6032 C   0  0  0  0  0  0  0  0  0  0  0  0
   11.1226    4.3871   23.7580 Se  0  0  0  0  0  0  0  0  0  0  0  0
    4.4531    6.6815   20.2433 Cl  0  0  0  0  0  0  0  0  0  0  0  0
    3.3418   10.1440   19.3332 Cl  0  0  0  0  0  0  0  0  0  0  0  0
    5.4153    6.7253   20.8389 P   0  0  0  0  0  0  0  0  0  0  0  0
    7.1817    9.7548   23.4449 O   0  0  0  0  0  0  0  0  0  0  0  0
    4.1956    9.1981   19.8709 He  0  0  0  0  0  0  0  0  0  0  0  0
    9.3963   10.8211   20.5210 He  0  0  0  0  0  0  0  0  0  0  0  0
    9.7773    5.6956   21.9272 He  0  0  0  0  0  0  0  0  0  0  0  0
  1  6  2  0
  1  8  4  0
  1 10  1  0
  1 11  4  0
  2  9  1  0
  2 11  1  0
  2 22  4  0
  3 11  4  0
  3 13  1  0
  3 15  4  0
  3 20  4  0
  4  7  4  0
  4 12  4  0
  4 15  4  0
  4 16  2  0
  4 24  1  0
  5  8  4  0
  5  9  2  0
  5 15  2  0
  5 18  1  0
  5 19  2  0
  5 20  4  0
  6 16  1  0
  6 25  2  0
  7 14  4  0
  7 15  1  0
  7 24  4  0
  8 16  4  0
  8 19  2  0
  9 10  3  0
 10 12  2  0
 10 18  1  0
 11 20  4  0
 11 21  1  0
 12 19  4  0
 12 25  1  0
 13 15  3  0
 13 20  4  0
 15 17  1  0
 15 18  1  0
 15 23  4  0
 16 17  4  0
 17 19  4  0
 18 25  1  0
 20 25  1  0
 22 24  4  0
M  END
$$$$

 Created by Python create_sdf_string function

 28 30  0  0  0  0  0  0  0  0999 V2000
   11.2350   11.1408   19.0552 C   0  0  0  0  0  0  0  0  0  0  0  0
    3.5978    7.7053   19.9195 C   0  0  0  0  0  0  0  0  0  0  0  0
   13.3990   10.2125   19.4472 C   0  0  0  0  0  0  0  0  0  0  0  0
    9.9546    5.3403   23.1365 C   0  0  0  0  0  0  0  0  0  0  0  0
   11.7309    9.8957   21.1087 C   0  0  0  0  0  0  0  0  0  0  0  0
    8.7608   11.7105   20.1595 O   0  0  0  0  0  0  0  0  0  0  0  0
    6.1415    8.1001   20.9518 C   0  0  0  0  0  0  0  0  0  0  0  0
   10.8450   10.6355   20.2912 C   0  0  0  0  0  0  0  0  0  0  0  0
    2.2491    7.5433   19.4179 O   0  0  0  0  0  0  0  0  0  0  0  0
    9.0884   10.1892   21.7589 N   0  0  0  0  0  0  0  0  0  0  0  0
    4.1887    8.9840   19.9910 C   0  0  0  0  0  0  0  0  0  0  0  0
   12.5105   10.8984   18.6550 C   0  0  0  0  0  0  0  0  0  0  0  0
    9.1068    6.0440   23.9706 C   0  0  0  0  0  0  0  0  0  0  0  0
   14.7080   10.0183   19.0087 O   0  0  0  0  0  0  0  0  0  0  0  0
    5.4018    9.1865   20.5454 C   0  0  0  0  0  0  0  0  0  0  0  0
    7.5006    8.2949   21.4558 C   0  0  0  0  0  0  0  0  0  0  0  0
    9.0964    6.5514   21.2182 C   0  0  0  0  0  0  0  0  0  0  0  0
    9.4854   10.8242   20.7634 C   0  0  0  0  0  0  0  0  0  0  0  0
    8.2910    7.2595   22.0549 C   0  0  0  0  0  0  0  0  0  0  0  0
    7.8174    9.7105   21.9974 N   0  0  0  0  0  0  0  0  0  0  0  0
    9.9750    5.5380   21.7810 C   0  0  0  0  0  0  0  0  0  0  0  0
    8.2800    7.0141   23.4110 C   0  0  0  0  0  0  0  0  0  0  0  0
   13.0037    9.7259   20.6508 C   0  0  0  0  0  0  0  0  0  0  0  0
   10.9659    4.2957   23.7550 O   0  0  0  0  0  0  0  0  0  0  0  0
    4.3459    6.6314   20.3472 C   0  0  0  0  0  0  0  0  0  0  0  0
    3.3338   10.2105   19.3683 Cl  0  0  0  0  0  0  0  0  0  0  0  0
    5.6101    6.8246   20.8587 C   0  0  0  0  0  0  0  0  0  0  0  0
    7.1748    9.9972   23.2135 O   0  0  0  0  0  0  0  0  0  0  0  0
  1  8  4  0
  1 12  4  0
  2  9  1  0
  2 11  4  0
  2 25  4  0
  3 12  4  0
  3 14  1  0
  3 23  4  0
  4 13  4  0
  4 21  4  0
  4 24  1  0
  5  8  4  0
  5 23  4  0
  6 18  1  0
  7 15  4  0
  7 16  1  0
  7 27  4  0
  8 18  1  0
 10 18  2  0
 10 20  1  0
 11 15  4  0
 11 26  1  0
 13 22  4  0
 16 19  1  0
 16 20  1  0
 17 19  4  0
 17 21  4  0
 19 22  4  0
 20 28  1  0
 25 27  4  0
M  END
$$$$

 Created by Python create_sdf_string function

 28 59  0  0  0  0  0  0  0  0999 V2000
   11.3889   11.3018   18.8776 C   0  0  0  0  0  0  0  0  0  0  0  0
    3.4642    7.7436   20.0285 C   0  0  0  0  0  0  0  0  0  0  0  0
   13.5044   10.1302   19.5993 C   0  0  0  0  0  0  0  0  0  0  0  0
    9.8347    5.2207   23.0280 C   0  0  0  0  0  0  0  0  0  0  0  0
   11.8470    9.7357   21.2269 C   0  0  0  0  0  0  0  0  0  0  0  0
    8.9212   11.8717   19.9604 O   0  0  0  0  0  0  0  0  0  0  0  0
   10.8223   10.4764   20.4436 C   0  0  0  0  0  0  0  0  0  0  0  0
    2.1263    7.5778   19.2151 O   0  0  0  0  0  0  0  0  0  0  0  0
    9.0896    9.9662   21.8227 N   0  0  0  0  0  0  0  0  0  0  0  0
    4.1565    9.2665   20.0205 C   0  0  0  0  0  0  0  0  0  0  0  0
   12.6462   11.3149   18.8392 C   0  0  0  0  0  0  0  0  0  0  0  0
    9.0581    6.0567   23.9310 C   0  0  0  0  0  0  0  0  0  0  0  0
   14.7754    9.8985   18.6520 O   0  0  0  0  0  0  0  0  0  0  0  0
    4.9223    9.5147   20.9061 C   0  0  0  0  0  0  0  0  0  0  0  0
    7.4655    8.2267   21.3735 C   0  0  0  0  0  0  0  0  0  0  0  0
    9.1735    6.7180   21.0703 C   0  0  0  0  0  0  0  0  0  0  0  0
    9.5303   10.8585   20.3582 C   0  0  0  0  0  0  0  0  0  0  0  0
    8.3479    7.6411   22.0171 C   0  0  0  0  0  0  0  0  0  0  0  0
    8.0935    9.6325   22.2567 N   0  0  0  0  0  0  0  0  0  0  0  0
   10.0869    5.4583   21.7981 C   0  0  0  0  0  0  0  0  0  0  0  0
    8.2908    6.8173   23.1505 C   0  0  0  0  0  0  0  0  0  0  0  0
   13.2653    9.5418   20.7768 C   0  0  0  0  0  0  0  0  0  0  0  0
   10.7763    4.5139   23.7186 O   0  0  0  0  0  0  0  0  0  0  0  0
    4.1021    6.7638   20.4367 C   0  0  0  0  0  0  0  0  0  0  0  0
    3.3355   10.2046   19.2662 Cl  0  0  0  0  0  0  0  0  0  0  0  0
    5.5494    6.8441   20.8026 C   0  0  0  0  0  0  0  0  0  0  0  0
    7.0364   10.0774   23.3207 O   0  0  0  0  0  0  0  0  0  0  0  0
    6.0534    8.3023   20.7123 He  0  0  0  0  0  0  0  0  0  0  0  0
  1  5  2  0
  1  7  4  0
  1  9  1  0
  1 11  4  0
  1 16  4  0
  2  5  2  0
  2  6  4  0
  2  8  1  0
  2 10  4  0
  2 24  4  0
  2 26  2  0
  3 11  4  0
  3 13  1  0
  3 14  3  0
  3 19  4  0
  3 22  4  0
  4 12  4  0
  4 14  3  0
  4 15  1  0
  4 20  4  0
  4 23  1  0
  5  6  3  0
  5  7  4  0
  5 22  4  0
  5 25  4  0
  6 17  1  0
  6 19  4  0
  6 21  4  0
  8 10  4  0
  8 22  2  0
  8 23  2  0
  8 24  2  0
  9 14  1  0
  9 17  2  0
  9 19  1  0
  9 26  4  0
 10 13  2  0
 10 14  4  0
 10 15  4  0
 10 17  2  0
 10 25  1  0
 11 14  2  0
 11 17  4  0
 11 25  3  0
 12 19  3  0
 12 25  3  0
 14 21  4  0
 15 17  3  0
 15 18  1  0
 15 19  1  0
 15 23  1  0
 16 18  4  0
 16 19  2  0
 16 20  4  0
 18 19  1  0
 18 27  4  0
 19 22  2  0
 19 27  1  0
 24 26  4  0
M  END
$$$$

 Created by Python create_sdf_string function

 28 30  0  0  0  0  0  0  0  0999 V2000
   11.4068   11.2748   19.1741 C   0  0  0  0  0  0  0  0  0  0  0  0
    3.5189    7.8144   19.9213 C   0  0  0  0  0  0  0  0  0  0  0  0
   13.5455   10.2160   19.4455 C   0  0  0  0  0  0  0  0  0  0  0  0
    9.9260    5.3456   23.0740 C   0  0  0  0  0  0  0  0  0  0  0  0
   11.8178    9.7911   21.0514 C   0  0  0  0  0  0  0  0  0  0  0  0
    8.8553   11.7154   20.0553 O   0  0  0  0  0  0  0  0  0  0  0  0
    6.0395    8.2159   20.9846 C   0  0  0  0  0  0  0  0  0  0  0  0
   10.9643   10.6182   20.3091 C   0  0  0  0  0  0  0  0  0  0  0  0
    2.2582    7.6439   19.3274 O   0  0  0  0  0  0  0  0  0  0  0  0
    9.0677   10.1543   21.7300 N   0  0  0  0  0  0  0  0  0  0  0  0
    4.0579    9.1212   20.0369 C   0  0  0  0  0  0  0  0  0  0  0  0
   12.7041   11.0557   18.7431 C   0  0  0  0  0  0  0  0  0  0  0  0
    9.0207    6.0130   23.8534 C   0  0  0  0  0  0  0  0  0  0  0  0
   14.8042    9.9749   18.9475 O   0  0  0  0  0  0  0  0  0  0  0  0
    5.2839    9.3094   20.6392 C   0  0  0  0  0  0  0  0  0  0  0  0
    7.4450    8.3979   21.3425 C   0  0  0  0  0  0  0  0  0  0  0  0
    9.1676    6.6703   21.1665 C   0  0  0  0  0  0  0  0  0  0  0  0
    9.5625   10.7838   20.7482 C   0  0  0  0  0  0  0  0  0  0  0  0
    8.2983    7.3420   21.9652 C   0  0  0  0  0  0  0  0  0  0  0  0
    7.7399    9.7774   21.9635 N   0  0  0  0  0  0  0  0  0  0  0  0
   10.0041    5.6531   21.7405 C   0  0  0  0  0  0  0  0  0  0  0  0
    8.2119    7.0482   23.3134 C   0  0  0  0  0  0  0  0  0  0  0  0
   13.1125    9.6213   20.6121 C   0  0  0  0  0  0  0  0  0  0  0  0
   10.7293    4.4127   23.6164 O   0  0  0  0  0  0  0  0  0  0  0  0
    4.2591    6.7400   20.3359 C   0  0  0  0  0  0  0  0  0  0  0  0
    3.2698   10.2796   19.4188 Cl  0  0  0  0  0  0  0  0  0  0  0  0
    5.5181    6.9509   20.8654 C   0  0  0  0  0  0  0  0  0  0  0  0
    7.0309   10.1252   23.0915 O   0  0  0  0  0  0  0  0  0  0  0  0
  1  8  4  0
  1 12  4  0
  2  9  1  0
  2 11  4  0
  2 25  4  0
  3 12  4  0
  3 14  1  0
  3 23  4  0
  4 13  4  0
  4 21  4  0
  4 24  1  0
  5  8  4  0
  5 23  4  0
  6 18  1  0
  7 15  4  0
  7 16  1  0
  7 27  4  0
  8 18  1  0
 10 18  2  0
 10 20  1  0
 11 15  4  0
 11 26  1  0
 13 22  4  0
 16 19  1  0
 16 20  1  0
 17 19  4  0
 17 21  4  0
 19 22  4  0
 20 28  1  0
 25 27  4  0
M  END
$$$$

 Created by Python create_sdf_string function

 28 46  0  0  0  0  0  0  0  0999 V2000
   11.0373   11.2759   19.1278 C   0  0  0  0  0  0  0  0  0  0  0  0
    3.4555    7.8610   19.7186 C   0  0  0  0  0  0  0  0  0  0  0  0
   13.1757   10.3367   19.3457 C   0  0  0  0  0  0  0  0  0  0  0  0
    9.6527    5.2735   23.1076 C   0  0  0  0  0  0  0  0  0  0  0  0
   11.8810    9.9835   21.1445 C   0  0  0  0  0  0  0  0  0  0  0  0
    8.5451   11.4831   19.8939 O   0  0  0  0  0  0  0  0  0  0  0  0
    5.9753    8.0864   20.9605 C   0  0  0  0  0  0  0  0  0  0  0  0
   10.4880   10.9027   20.5597 C   0  0  0  0  0  0  0  0  0  0  0  0
    2.3333    7.4733   19.1136 O   0  0  0  0  0  0  0  0  0  0  0  0
    9.0853   10.2870   21.9369 N   0  0  0  0  0  0  0  0  0  0  0  0
    4.0067    9.1001   20.1263 C   0  0  0  0  0  0  0  0  0  0  0  0
   12.7636   10.8372   18.8320 C   0  0  0  0  0  0  0  0  0  0  0  0
   15.0562    9.9283   18.6309 O   0  0  0  0  0  0  0  0  0  0  0  0
    5.1547    9.7557   20.5480 C   0  0  0  0  0  0  0  0  0  0  0  0
    7.2356    8.7782   21.4482 C   0  0  0  0  0  0  0  0  0  0  0  0
    9.1374    6.5197   21.0025 C   0  0  0  0  0  0  0  0  0  0  0  0
    9.3906   10.9702   20.7738 C   0  0  0  0  0  0  0  0  0  0  0  0
    8.3245    7.1016   22.1434 C   0  0  0  0  0  0  0  0  0  0  0  0
    7.9559   10.1626   22.1414 O   0  0  0  0  0  0  0  0  0  0  0  0
    9.6485    5.8099   21.8420 C   0  0  0  0  0  0  0  0  0  0  0  0
    8.2689    7.3315   23.0922 C   0  0  0  0  0  0  0  0  0  0  0  0
   13.0428    9.7818   20.6014 C   0  0  0  0  0  0  0  0  0  0  0  0
   10.5759    4.2090   23.6740 O   0  0  0  0  0  0  0  0  0  0  0  0
    4.5159    6.3962   20.4623 N   0  0  0  0  0  0  0  0  0  0  0  0
    3.3263   10.6355   19.6570 Cl  0  0  0  0  0  0  0  0  0  0  0  0
    5.3276    7.0517   20.9731 C   0  0  0  0  0  0  0  0  0  0  0  0
    6.8908   10.2492   23.1762 O   0  0  0  0  0  0  0  0  0  0  0  0
    8.9956    5.8706   23.7857 He  0  0  0  0  0  0  0  0  0  0  0  0
  1  4  2  0
  1  8  4  0
  1 12  4  0
  1 27  3  0
  2  9  1  0
  2 11  4  0
  2 24  4  0
  3 11  4  0
  3 12  4  0
  3 13  1  0
  3 19  3  0
  3 22  4  0
  4  6  1  0
  4  7  4  0
  4 19  1  0
  4 20  4  0
  4 23  1  0
  4 27  4  0
  5  7  4  0
  5  8  4  0
  5 22  4  0
  6 10  1  0
  6 17  1  0
  7 14  4  0
  7 15  1  0
  7 26  2  0
  8 17  1  0
  8 19  2  0
  9 12  2  0
 10 17  2  0
 10 19  1  0
 11 14  4  0
 11 19  3  0
 11 25  1  0
 15 18  3  0
 15 19  1  0
 15 20  3  0
 16 18  3  0
 16 20  4  0
 18 21  4  0
 18 24  3  0
 20 21  2  0
 20 23  3  0
 22 26  2  0
 23 27  3  0
 24 26  4  0
M  END
$$$$

 Created by Python create_sdf_string function

 28 30  0  0  0  0  0  0  0  0999 V2000
   11.2447   11.2478   19.1232 C   0  0  0  0  0  0  0  0  0  0  0  0
    3.6036    7.8304   19.8581 C   0  0  0  0  0  0  0  0  0  0  0  0
   13.4088   10.2549   19.3818 C   0  0  0  0  0  0  0  0  0  0  0  0
    9.7367    5.3185   23.0697 C   0  0  0  0  0  0  0  0  0  0  0  0
   11.7834   10.0219   21.1234 C   0  0  0  0  0  0  0  0  0  0  0  0
    8.6315   11.5223   20.0121 O   0  0  0  0  0  0  0  0  0  0  0  0
    6.0479    8.3245   21.0087 C   0  0  0  0  0  0  0  0  0  0  0  0
   10.8577   10.7282   20.3337 C   0  0  0  0  0  0  0  0  0  0  0  0
    2.4121    7.5827   19.1804 O   0  0  0  0  0  0  0  0  0  0  0  0
    9.0698   10.3065   21.8895 N   0  0  0  0  0  0  0  0  0  0  0  0
    4.0680    9.1597   20.0425 C   0  0  0  0  0  0  0  0  0  0  0  0
   12.5192   10.9888   18.6575 C   0  0  0  0  0  0  0  0  0  0  0  0
    8.9836    6.0856   23.8839 C   0  0  0  0  0  0  0  0  0  0  0  0
   14.8115    9.9733   18.8039 O   0  0  0  0  0  0  0  0  0  0  0  0
    5.2679    9.3948   20.6529 C   0  0  0  0  0  0  0  0  0  0  0  0
    7.4408    8.5329   21.3740 C   0  0  0  0  0  0  0  0  0  0  0  0
    8.9814    6.6864   21.1661 C   0  0  0  0  0  0  0  0  0  0  0  0
    9.4632   10.8653   20.8030 C   0  0  0  0  0  0  0  0  0  0  0  0
    8.2334    7.4491   22.0070 C   0  0  0  0  0  0  0  0  0  0  0  0
    7.7143    9.9175   22.1130 C   0  0  0  0  0  0  0  0  0  0  0  0
    9.7735    5.5923   21.7194 C   0  0  0  0  0  0  0  0  0  0  0  0
    8.2143    7.1930   23.3449 C   0  0  0  0  0  0  0  0  0  0  0  0
   13.0193    9.7959   20.6168 C   0  0  0  0  0  0  0  0  0  0  0  0
   10.4733    4.2613   23.6051 O   0  0  0  0  0  0  0  0  0  0  0  0
    4.3345    6.7839   20.3439 C   0  0  0  0  0  0  0  0  0  0  0  0
    3.1225   10.4571   19.5351 Cl  0  0  0  0  0  0  0  0  0  0  0  0
    5.5477    7.0776   20.9115 C   0  0  0  0  0  0  0  0  0  0  0  0
    6.9605   10.3348   23.0452 O   0  0  0  0  0  0  0  0  0  0  0  0
  1  8  4  0
  1 12  4  0
  2  9  1  0
  2 11  4  0
  2 25  4  0
  3 12  4  0
  3 14  1  0
  3 23  4  0
  4 13  4  0
  4 21  4  0
  4 24  1  0
  5  8  4  0
  5 23  4  0
  6 18  1  0
  7 15  4  0
  7 16  1  0
  7 27  4  0
  8 18  1  0
 10 18  2  0
 10 20  1  0
 11 15  4  0
 11 26  1  0
 13 22  4  0
 16 19  1  0
 16 20  1  0
 17 19  4  0
 17 21  4  0
 19 22  4  0
 20 28  1  0
 25 27  4  0
M  END
$$$$

 Created by Python create_sdf_string function

 28 35  0  0  0  0  0  0  0  0999 V2000
   11.0095   10.8584   19.1777 C   0  0  0  0  0  0  0  0  0  0  0  0
   13.5605   10.3216   19.3646 C   0  0  0  0  0  0  0  0  0  0  0  0
    8.6650   11.4225   20.0954 O   0  0  0  0  0  0  0  0  0  0  0  0
    5.8210    8.3024   21.1637 C   0  0  0  0  0  0  0  0  0  0  0  0
   10.9194   10.6821   20.5144 C   0  0  0  0  0  0  0  0  0  0  0  0
    8.9728   10.1470   21.9199 N   0  0  0  0  0  0  0  0  0  0  0  0
   12.4823   11.1031   18.5793 C   0  0  0  0  0  0  0  0  0  0  0  0
    9.0916    5.9853   23.8596 C   0  0  0  0  0  0  0  0  0  0  0  0
   14.9564    9.8915   18.8759 O   0  0  0  0  0  0  0  0  0  0  0  0
    5.3332    9.5271   20.5041 N   0  0  0  0  0  0  0  0  0  0  0  0
    7.6270    8.3558   21.1760 C   0  0  0  0  0  0  0  0  0  0  0  0
    9.0204    6.6562   21.2423 C   0  0  0  0  0  0  0  0  0  0  0  0
    9.5006   10.7777   20.7518 C   0  0  0  0  0  0  0  0  0  0  0  0
    8.1321    7.7046   21.8560 C   0  0  0  0  0  0  0  0  0  0  0  0
    7.7562   10.2688   22.2188 C   0  0  0  0  0  0  0  0  0  0  0  0
    9.5275    5.5230   21.6367 C   0  0  0  0  0  0  0  0  0  0  0  0
    8.3447    7.1294   23.2937 C   0  0  0  0  0  0  0  0  0  0  0  0
   12.8964    9.5971   20.8503 C   0  0  0  0  0  0  0  0  0  0  0  0
   10.2197    4.2835   23.5255 O   0  0  0  0  0  0  0  0  0  0  0  0
    4.2646    6.8623   20.6433 C   0  0  0  0  0  0  0  0  0  0  0  0
    3.0560   10.5265   19.5379 Cl  0  0  0  0  0  0  0  0  0  0  0  0
    5.7032    7.0320   20.9446 C   0  0  0  0  0  0  0  0  0  0  0  0
    6.8548   10.1539   23.1835 F   0  0  0  0  0  0  0  0  0  0  0  0
    3.4334    7.7654   19.9083 He  0  0  0  0  0  0  0  0  0  0  0  0
    9.8867    5.5034   23.3718 He  0  0  0  0  0  0  0  0  0  0  0  0
   11.8077    9.9300   21.3048 He  0  0  0  0  0  0  0  0  0  0  0  0
    2.4720    7.5838   19.1890 He  0  0  0  0  0  0  0  0  0  0  0  0
    4.0367    9.4605   20.0443 He  0  0  0  0  0  0  0  0  0  0  0  0
  1  4  2  0
  1  5  4  0
  1  7  4  0
  1 12  2  0
  2  7  4  0
  2  9  1  0
  2 18  4  0
  3  7  3  0
  4 10  4  0
  4 11  1  0
  4 22  4  0
  5 13  1  0
  5 23  3  0
  6 15  1  0
  7  8  4  0
  7 10  1  0
  7 19  4  0
  7 20  4  0
  8 15  2  0
  8 17  4  0
  8 19  4  0
  8 20  1  0
  8 22  3  0
 10 11  3  0
 11 14  1  0
 11 15  1  0
 11 17  4  0
 12 14  4  0
 12 16  4  0
 12 18  3  0
 13 14  3  0
 14 16  4  0
 14 17  4  0
 16 22  1  0
 20 22  4  0
M  END
$$$$

 Created by Python create_sdf_string function

 28 30  0  0  0  0  0  0  0  0999 V2000
   11.2511   11.0839   19.1132 C   0  0  0  0  0  0  0  0  0  0  0  0
    3.5691    7.8943   19.9389 C   0  0  0  0  0  0  0  0  0  0  0  0
   13.4415   10.1954   19.4685 C   0  0  0  0  0  0  0  0  0  0  0  0
    9.6654    5.3400   23.0506 C   0  0  0  0  0  0  0  0  0  0  0  0
   11.7933    9.9316   21.1623 C   0  0  0  0  0  0  0  0  0  0  0  0
    8.6954   11.4487   20.1050 O   0  0  0  0  0  0  0  0  0  0  0  0
    6.0414    8.3674   20.9990 C   0  0  0  0  0  0  0  0  0  0  0  0
   10.8781   10.5960   20.3490 C   0  0  0  0  0  0  0  0  0  0  0  0
    2.3140    7.6765   19.2630 O   0  0  0  0  0  0  0  0  0  0  0  0
    9.0558   10.2516   21.9499 N   0  0  0  0  0  0  0  0  0  0  0  0
    4.0602    9.2206   20.0581 C   0  0  0  0  0  0  0  0  0  0  0  0
   12.5455   10.8637   18.6684 C   0  0  0  0  0  0  0  0  0  0  0  0
    8.9988    6.1810   23.8775 C   0  0  0  0  0  0  0  0  0  0  0  0
   14.8086    9.9842   18.9801 O   0  0  0  0  0  0  0  0  0  0  0  0
    5.2951    9.4568   20.6129 C   0  0  0  0  0  0  0  0  0  0  0  0
    7.4217    8.5711   21.3630 C   0  0  0  0  0  0  0  0  0  0  0  0
    8.9480    6.6752   21.1693 C   0  0  0  0  0  0  0  0  0  0  0  0
    9.5009   10.7978   20.8087 C   0  0  0  0  0  0  0  0  0  0  0  0
    8.2481    7.4790   21.9972 C   0  0  0  0  0  0  0  0  0  0  0  0
    7.6384    9.9771   22.0936 C   0  0  0  0  0  0  0  0  0  0  0  0
    9.6852    5.5924   21.6929 C   0  0  0  0  0  0  0  0  0  0  0  0
    8.3036    7.2784   23.3590 C   0  0  0  0  0  0  0  0  0  0  0  0
   13.0636    9.7570   20.7037 C   0  0  0  0  0  0  0  0  0  0  0  0
   10.3382    4.2968   23.5870 O   0  0  0  0  0  0  0  0  0  0  0  0
    4.2740    6.8488   20.4522 C   0  0  0  0  0  0  0  0  0  0  0  0
    3.1409   10.4574   19.5145 Cl  0  0  0  0  0  0  0  0  0  0  0  0
    5.5360    7.0828   20.9959 C   0  0  0  0  0  0  0  0  0  0  0  0
    6.8342   10.3120   23.0861 O   0  0  0  0  0  0  0  0  0  0  0  0
  1  8  4  0
  1 12  4  0
  2  9  1  0
  2 11  4  0
  2 25  4  0
  3 12  4  0
  3 14  1  0
  3 23  4  0
  4 13  4  0
  4 21  4  0
  4 24  1  0
  5  8  4  0
  5 23  4  0
  6 18  2  0
  7 15  4  0
  7 16  1  0
  7 27  4  0
  8 18  1  0
 10 18  1  0
 10 20  1  0
 11 15  4  0
 11 26  1  0
 13 22  4  0
 16 19  1  0
 16 20  1  0
 17 19  4  0
 17 21  4  0
 19 22  4  0
 20 28  1  0
 25 27  4  0
M  END
$$$$

 Created by Python create_sdf_string function

 28 48  0  0  0  0  0  0  0  0999 V2000
    3.7997    8.0389   20.1166 C   0  0  0  0  0  0  0  0  0  0  0  0
   13.3037    9.9503   19.4094 C   0  0  0  0  0  0  0  0  0  0  0  0
    9.5336    5.4511   22.8451 C   0  0  0  0  0  0  0  0  0  0  0  0
   11.9999    9.8837   21.0996 C   0  0  0  0  0  0  0  0  0  0  0  0
    6.1828    8.1373   21.1603 C   0  0  0  0  0  0  0  0  0  0  0  0
   10.7966   10.5721   20.3779 C   0  0  0  0  0  0  0  0  0  0  0  0
    2.1784    7.6463   19.4899 O   0  0  0  0  0  0  0  0  0  0  0  0
    9.0175   10.3464   22.2591 N   0  0  0  0  0  0  0  0  0  0  0  0
    4.0302    9.3506   20.3029 N   0  0  0  0  0  0  0  0  0  0  0  0
   12.5191   10.9176   18.6693 C   0  0  0  0  0  0  0  0  0  0  0  0
    9.1154    6.2958   23.9139 C   0  0  0  0  0  0  0  0  0  0  0  0
   15.1000   10.0314   18.8386 O   0  0  0  0  0  0  0  0  0  0  0  0
    5.2133    9.5287   20.4025 C   0  0  0  0  0  0  0  0  0  0  0  0
    7.5243    8.3444   21.3971 C   0  0  0  0  0  0  0  0  0  0  0  0
    8.7839    6.7220   21.1457 C   0  0  0  0  0  0  0  0  0  0  0  0
    9.2319   10.5682   20.8472 C   0  0  0  0  0  0  0  0  0  0  0  0
    7.9732    7.4609   21.9162 C   0  0  0  0  0  0  0  0  0  0  0  0
    7.4495   10.0313   22.2360 C   0  0  0  0  0  0  0  0  0  0  0  0
    9.4071    5.4339   21.4791 C   0  0  0  0  0  0  0  0  0  0  0  0
    8.5426    7.2897   23.6273 C   0  0  0  0  0  0  0  0  0  0  0  0
   12.8585    9.9856   20.6719 C   0  0  0  0  0  0  0  0  0  0  0  0
   10.2752    4.4895   23.5270 O   0  0  0  0  0  0  0  0  0  0  0  0
    4.3765    6.7953   20.6281 C   0  0  0  0  0  0  0  0  0  0  0  0
    5.3757    6.9317   21.4237 C   0  0  0  0  0  0  0  0  0  0  0  0
    6.9737   10.1491   23.1087 O   0  0  0  0  0  0  0  0  0  0  0  0
   11.4354   11.1000   19.1655 He  0  0  0  0  0  0  0  0  0  0  0  0
    8.8400   11.1607   20.1040 He  0  0  0  0  0  0  0  0  0  0  0  0
    3.2423   10.4185   19.4406 He  0  0  0  0  0  0  0  0  0  0  0  0
  1  7  1  0
  1  9  4  0
  1 10  3  0
  1 23  4  0
  2 10  4  0
  2 12  1  0
  2 21  4  0
  3  7  4  0
  3 11  4  0
  3 19  4  0
  3 22  1  0
  4  6  4  0
  4  7  2  0
  4 12  3  0
  4 17  4  0
  4 21  4  0
  5 13  4  0
  5 14  1  0
  5 15  2  0
  5 16  1  0
  5 18  3  0
  5 24  4  0
  6 11  1  0
  6 16  1  0
  6 17  1  0
  6 25  3  0
  8 21  1  0
  9 13  4  0
  9 22  1  0
 10 11  1  0
 10 16  1  0
 11 20  4  0
 12 15  2  0
 12 21  2  0
 12 25  1  0
 13 23  4  0
 13 24  3  0
 14 17  1  0
 14 18  1  0
 14 22  3  0
 15 17  4  0
 15 19  4  0
 16 20  2  0
 16 23  2  0
 17 20  4  0
 18 25  1  0
 21 22  4  0
 23 24  4  0
M  END
$$$$

 Created by Python create_sdf_string function

 28 30  0  0  0  0  0  0  0  0999 V2000
   11.2654   11.0306   19.1267 C   0  0  0  0  0  0  0  0  0  0  0  0
    3.5283    7.8884   20.0871 C   0  0  0  0  0  0  0  0  0  0  0  0
   13.4794   10.2128   19.4587 C   0  0  0  0  0  0  0  0  0  0  0  0
    9.6523    5.3504   22.9711 C   0  0  0  0  0  0  0  0  0  0  0  0
   11.8552    9.9122   21.1790 C   0  0  0  0  0  0  0  0  0  0  0  0
    8.7090   11.2455   20.0319 O   0  0  0  0  0  0  0  0  0  0  0  0
    6.0150    8.3678   21.1216 C   0  0  0  0  0  0  0  0  0  0  0  0
   10.9178   10.5628   20.3719 C   0  0  0  0  0  0  0  0  0  0  0  0
    2.3300    7.7233   19.5280 O   0  0  0  0  0  0  0  0  0  0  0  0
    9.1100   10.2752   22.0037 N   0  0  0  0  0  0  0  0  0  0  0  0
    4.0885    9.1903   20.0710 C   0  0  0  0  0  0  0  0  0  0  0  0
   12.5449   10.8683   18.6754 C   0  0  0  0  0  0  0  0  0  0  0  0
    9.1423    6.2628   23.8537 C   0  0  0  0  0  0  0  0  0  0  0  0
   14.8605    9.9911   18.9302 O   0  0  0  0  0  0  0  0  0  0  0  0
    5.3078    9.4110   20.6162 C   0  0  0  0  0  0  0  0  0  0  0  0
    7.3956    8.5783   21.4859 C   0  0  0  0  0  0  0  0  0  0  0  0
    8.7180    6.6120   21.1466 C   0  0  0  0  0  0  0  0  0  0  0  0
    9.5243   10.7148   20.7820 C   0  0  0  0  0  0  0  0  0  0  0  0
    8.2065    7.4954   22.0354 C   0  0  0  0  0  0  0  0  0  0  0  0
    7.6494    9.9855   22.2011 C   0  0  0  0  0  0  0  0  0  0  0  0
    9.4711    5.5053   21.6251 C   0  0  0  0  0  0  0  0  0  0  0  0
    8.4074    7.3557   23.3892 C   0  0  0  0  0  0  0  0  0  0  0  0
   13.1134    9.7361   20.6872 C   0  0  0  0  0  0  0  0  0  0  0  0
   10.3314    4.2973   23.4223 O   0  0  0  0  0  0  0  0  0  0  0  0
    4.1959    6.8465   20.6799 C   0  0  0  0  0  0  0  0  0  0  0  0
    3.3143   10.2061   19.5300 O   0  0  0  0  0  0  0  0  0  0  0  0
    5.4797    7.0911   21.1987 C   0  0  0  0  0  0  0  0  0  0  0  0
    6.9242   10.3523   23.1557 O   0  0  0  0  0  0  0  0  0  0  0  0
  1  8  4  0
  1 12  4  0
  2  9  1  0
  2 11  4  0
  2 25  4  0
  3 12  4  0
  3 14  1  0
  3 23  4  0
  4 13  4  0
  4 21  4  0
  4 24  1  0
  5  8  4  0
  5 23  4  0
  6 18  2  0
  7 15  4  0
  7 16  1  0
  7 27  4  0
  8 18  1  0
 10 18  1  0
 10 20  1  0
 11 15  4  0
 11 26  1  0
 13 22  4  0
 16 19  1  0
 16 20  1  0
 17 19  4  0
 17 21  4  0
 19 22  4  0
 20 28  1  0
 25 27  4  0
M  END
$$$$

 Created by Python create_sdf_string function

 28 43  0  0  0  0  0  0  0  0999 V2000
   11.3699   10.9826   19.0274 C   0  0  0  0  0  0  0  0  0  0  0  0
   13.5335   10.5200   19.5448 C   0  0  0  0  0  0  0  0  0  0  0  0
    9.9739    5.1362   22.8133 C   0  0  0  0  0  0  0  0  0  0  0  0
   11.5569    9.7503   21.2077 C   0  0  0  0  0  0  0  0  0  0  0  0
    8.8645   11.1793   19.9934 O   0  0  0  0  0  0  0  0  0  0  0  0
   11.0647   10.4106   20.3446 C   0  0  0  0  0  0  0  0  0  0  0  0
    2.2517    7.8881   19.7037 O   0  0  0  0  0  0  0  0  0  0  0  0
    9.1170   10.3884   22.0565 N   0  0  0  0  0  0  0  0  0  0  0  0
    4.0408    9.2977   19.9753 C   0  0  0  0  0  0  0  0  0  0  0  0
   12.6112   10.9388   18.6327 C   0  0  0  0  0  0  0  0  0  0  0  0
    9.2201    6.1357   23.7524 C   0  0  0  0  0  0  0  0  0  0  0  0
   14.8278    9.8884   19.0223 O   0  0  0  0  0  0  0  0  0  0  0  0
    5.3211    9.5578   20.5208 C   0  0  0  0  0  0  0  0  0  0  0  0
    7.1785    8.2946   21.3616 C   0  0  0  0  0  0  0  0  0  0  0  0
    8.8309    6.8887   21.2999 C   0  0  0  0  0  0  0  0  0  0  0  0
    9.7103   10.4616   20.6422 C   0  0  0  0  0  0  0  0  0  0  0  0
    8.1986    7.5101   21.9931 C   0  0  0  0  0  0  0  0  0  0  0  0
    7.6634   10.1823   22.3000 C   0  0  0  0  0  0  0  0  0  0  0  0
    9.2755    5.5968   21.6731 C   0  0  0  0  0  0  0  0  0  0  0  0
    8.5487    7.3345   23.1732 C   0  0  0  0  0  0  0  0  0  0  0  0
   13.2713    9.8960   20.4875 C   0  0  0  0  0  0  0  0  0  0  0  0
   10.3520    4.2015   23.6955 O   0  0  0  0  0  0  0  0  0  0  0  0
    4.3214    6.8492   20.8605 C   0  0  0  0  0  0  0  0  0  0  0  0
    3.3618   10.2975   19.7355 C   0  0  0  0  0  0  0  0  0  0  0  0
    5.4819    6.8926   21.1576 C   0  0  0  0  0  0  0  0  0  0  0  0
    7.0101   10.2223   23.0408 O   0  0  0  0  0  0  0  0  0  0  0  0
    3.1895    8.0167   20.1491 He  0  0  0  0  0  0  0  0  0  0  0  0
    6.3553    8.3331   21.3173 He  0  0  0  0  0  0  0  0  0  0  0  0
  1  6  4  0
  1 10  4  0
  1 13  2  0
  1 18  3  0
  2  7  3  0
  2 10  4  0
  2 16  1  0
  2 21  4  0
  2 23  1  0
  3 19  4  0
  3 22  1  0
  3 24  1  0
  4 21  4  0
  5 16  2  0
  6  8  2  0
  6 16  1  0
  6 21  3  0
  8 16  1  0
  8 18  1  0
  8 21  3  0
  8 23  4  0
  9 13  4  0
  9 24  1  0
 10 14  4  0
 11 15  3  0
 11 19  2  0
 11 20  4  0
 12 14  2  0
 12 15  4  0
 12 22  1  0
 13 14  1  0
 14 17  1  0
 14 18  1  0
 15 16  2  0
 15 19  4  0
 15 22  1  0
 16 17  1  0
 16 24  3  0
 17 18  2  0
 17 20  4  0
 18 26  1  0
 19 26  2  0
 23 25  4  0
M  END
$$$$

 Created by Python create_sdf_string function

 28 30  0  0  0  0  0  0  0  0999 V2000
   11.3278   11.0185   19.0639 C   0  0  0  0  0  0  0  0  0  0  0  0
    3.4646    7.9624   20.1870 C   0  0  0  0  0  0  0  0  0  0  0  0
   13.5572   10.2472   19.4757 C   0  0  0  0  0  0  0  0  0  0  0  0
    9.7348    5.2842   22.9729 C   0  0  0  0  0  0  0  0  0  0  0  0
   11.8728    9.8677   21.1135 C   0  0  0  0  0  0  0  0  0  0  0  0
    8.7734   11.2046   19.9208 O   0  0  0  0  0  0  0  0  0  0  0  0
    6.0536    8.3608   21.1306 C   0  0  0  0  0  0  0  0  0  0  0  0
   10.9649   10.5006   20.2870 C   0  0  0  0  0  0  0  0  0  0  0  0
    2.2352    7.8317   19.7205 O   0  0  0  0  0  0  0  0  0  0  0  0
    9.1283   10.2665   21.9037 N   0  0  0  0  0  0  0  0  0  0  0  0
    4.0688    9.2416   20.1581 C   0  0  0  0  0  0  0  0  0  0  0  0
   12.6573   10.9123   18.6636 C   0  0  0  0  0  0  0  0  0  0  0  0
    9.2404    6.2071   23.8223 C   0  0  0  0  0  0  0  0  0  0  0  0
   14.8583   10.1139   19.0746 O   0  0  0  0  0  0  0  0  0  0  0  0
    5.3223    9.4182   20.6355 C   0  0  0  0  0  0  0  0  0  0  0  0
    7.4281    8.5615   21.4962 C   0  0  0  0  0  0  0  0  0  0  0  0
    8.8613    6.6248   21.1301 C   0  0  0  0  0  0  0  0  0  0  0  0
    9.5818   10.6652   20.6846 C   0  0  0  0  0  0  0  0  0  0  0  0
    8.3034    7.5019   22.0285 C   0  0  0  0  0  0  0  0  0  0  0  0
    7.7115   10.0196   22.0995 C   0  0  0  0  0  0  0  0  0  0  0  0
    9.5724    5.5076   21.6263 C   0  0  0  0  0  0  0  0  0  0  0  0
    8.5358    7.3397   23.3597 C   0  0  0  0  0  0  0  0  0  0  0  0
   13.1749    9.7514   20.6770 C   0  0  0  0  0  0  0  0  0  0  0  0
   10.3778    4.2010   23.4616 O   0  0  0  0  0  0  0  0  0  0  0  0
    4.1765    6.9172   20.7148 C   0  0  0  0  0  0  0  0  0  0  0  0
    3.3282   10.2927   19.6213 O   0  0  0  0  0  0  0  0  0  0  0  0
    5.4809    7.1239   21.2066 C   0  0  0  0  0  0  0  0  0  0  0  0
    6.9604   10.3727   23.0919 O   0  0  0  0  0  0  0  0  0  0  0  0
  1  8  4  0
  1 12  4  0
  2  9  1  0
  2 11  4  0
  2 25  4  0
  3 12  4  0
  3 14  1  0
  3 23  4  0
  4 13  4  0
  4 21  4  0
  4 24  1  0
  5  8  4  0
  5 23  4  0
  6 18  2  0
  7 15  4  0
  7 16  1  0
  7 27  4  0
  8 18  1  0
 10 18  1  0
 10 20  1  0
 11 15  4  0
 11 26  1  0
 13 22  4  0
 16 19  1  0
 16 20  1  0
 17 19  4  0
 17 21  4  0
 19 22  4  0
 20 28  1  0
 25 27  4  0
M  END
$$$$

 Created by Python create_sdf_string function

 28 49  0  0  0  0  0  0  0  0999 V2000
   11.5730   10.9989   19.0987 C   0  0  0  0  0  0  0  0  0  0  0  0
    3.4627    8.0653   20.1141 C   0  0  0  0  0  0  0  0  0  0  0  0
   13.5982   10.3684   19.3107 C   0  0  0  0  0  0  0  0  0  0  0  0
    9.8219    5.2702   22.9105 C   0  0  0  0  0  0  0  0  0  0  0  0
   11.9830    9.8164   21.1461 C   0  0  0  0  0  0  0  0  0  0  0  0
    8.9044   11.1141   20.0484 O   0  0  0  0  0  0  0  0  0  0  0  0
    5.8250    8.3663   21.3319 C   0  0  0  0  0  0  0  0  0  0  0  0
   10.8898   10.4799   20.3656 C   0  0  0  0  0  0  0  0  0  0  0  0
    2.1744    7.9232   19.6073 O   0  0  0  0  0  0  0  0  0  0  0  0
    9.1121   10.3361   21.7888 N   0  0  0  0  0  0  0  0  0  0  0  0
    4.0502    9.3411   20.1500 C   0  0  0  0  0  0  0  0  0  0  0  0
   12.9173   10.7374   18.4992 C   0  0  0  0  0  0  0  0  0  0  0  0
    9.2962    6.1491   23.7915 C   0  0  0  0  0  0  0  0  0  0  0  0
   14.8281   10.0080   19.1160 O   0  0  0  0  0  0  0  0  0  0  0  0
    7.4548    8.5218   21.4383 C   0  0  0  0  0  0  0  0  0  0  0  0
    8.8860    6.6219   21.0372 S   0  0  0  0  0  0  0  0  0  0  0  0
    9.4781   10.4882   20.7157 C   0  0  0  0  0  0  0  0  0  0  0  0
    8.5221    7.4448   22.0584 C   0  0  0  0  0  0  0  0  0  0  0  0
    7.6003   10.1609   22.1012 C   0  0  0  0  0  0  0  0  0  0  0  0
    9.3472    5.5628   21.6638 C   0  0  0  0  0  0  0  0  0  0  0  0
    8.6485    7.3767   23.2251 C   0  0  0  0  0  0  0  0  0  0  0  0
   13.1367    9.9103   20.6427 C   0  0  0  0  0  0  0  0  0  0  0  0
   10.2839    4.1346   23.5028 O   0  0  0  0  0  0  0  0  0  0  0  0
    4.2056    7.0727   20.6468 C   0  0  0  0  0  0  0  0  0  0  0  0
    3.1941   10.4820   19.8102 O   0  0  0  0  0  0  0  0  0  0  0  0
    5.2277    7.1342   21.2182 C   0  0  0  0  0  0  0  0  0  0  0  0
    6.8451   10.3531   22.9400 O   0  0  0  0  0  0  0  0  0  0  0  0
    5.1270    9.5083   20.5834 He  0  0  0  0  0  0  0  0  0  0  0  0
  1  8  4  0
  1 12  4  0
  1 16  3  0
  2  8  1  0
  2  9  1  0
  2 11  4  0
  2 15  2  0
  2 24  4  0
  3 10  4  0
  3 12  4  0
  3 14  1  0
  3 15  3  0
  4 13  2  0
  4 14  2  0
  4 20  4  0
  4 23  1  0
  5  6  2  0
  5  8  4  0
  5 18  3  0
  6 15  4  0
  6 22  1  0
  7 12  4  0
  7 15  1  0
  7 23  1  0
  7 25  3  0
  7 26  4  0
  8 26  1  0
 10 16  2  0
 10 17  1  0
 10 19  1  0
 11 13  1  0
 11 20  1  0
 11 25  1  0
 12 18  2  0
 12 27  1  0
 13 21  4  0
 15 17  4  0
 15 18  1  0
 15 19  1  0
 15 27  4  0
 16 18  4  0
 16 19  1  0
 16 20  4  0
 18 21  4  0
 18 24  1  0
 19 26  2  0
 19 27  1  0
 24 26  4  0
 24 27  2  0
M  END
$$$$

 Created by Python create_sdf_string function

 28 30  0  0  0  0  0  0  0  0999 V2000
   11.4112   10.9434   19.0301 C   0  0  0  0  0  0  0  0  0  0  0  0
    3.4153    8.0577   20.1334 C   0  0  0  0  0  0  0  0  0  0  0  0
   13.6362   10.2222   19.4752 C   0  0  0  0  0  0  0  0  0  0  0  0
    9.6959    5.2930   22.9281 C   0  0  0  0  0  0  0  0  0  0  0  0
   11.9323    9.9175   21.1246 C   0  0  0  0  0  0  0  0  0  0  0  0
    8.8566   11.2010   19.8861 O   0  0  0  0  0  0  0  0  0  0  0  0
    5.9504    8.4198   21.1534 C   0  0  0  0  0  0  0  0  0  0  0  0
   11.0296   10.4978   20.2698 C   0  0  0  0  0  0  0  0  0  0  0  0
    2.2303    7.9291   19.5824 O   0  0  0  0  0  0  0  0  0  0  0  0
    9.1127   10.2204   21.8134 N   0  0  0  0  0  0  0  0  0  0  0  0
    3.9688    9.3717   20.1922 C   0  0  0  0  0  0  0  0  0  0  0  0
   12.7290   10.8267   18.6307 C   0  0  0  0  0  0  0  0  0  0  0  0
    9.2853    6.2809   23.7817 C   0  0  0  0  0  0  0  0  0  0  0  0
   14.9007   10.0826   19.0700 O   0  0  0  0  0  0  0  0  0  0  0  0
    5.2198    9.5052   20.7224 C   0  0  0  0  0  0  0  0  0  0  0  0
    7.3597    8.5698   21.4856 C   0  0  0  0  0  0  0  0  0  0  0  0
    8.7890    6.6168   21.0897 C   0  0  0  0  0  0  0  0  0  0  0  0
    9.6312   10.6409   20.6726 C   0  0  0  0  0  0  0  0  0  0  0  0
    8.3051    7.5118   22.0012 C   0  0  0  0  0  0  0  0  0  0  0  0
    7.6755   10.0251   21.9991 C   0  0  0  0  0  0  0  0  0  0  0  0
    9.5028    5.4686   21.5868 C   0  0  0  0  0  0  0  0  0  0  0  0
    8.6031    7.4126   23.3079 C   0  0  0  0  0  0  0  0  0  0  0  0
   13.2322    9.7857   20.6981 C   0  0  0  0  0  0  0  0  0  0  0  0
   10.2968    4.1776   23.3963 O   0  0  0  0  0  0  0  0  0  0  0  0
    4.1119    6.9937   20.6551 C   0  0  0  0  0  0  0  0  0  0  0  0
    3.2382   10.3869   19.7335 O   0  0  0  0  0  0  0  0  0  0  0  0
    5.3943    7.1870   21.1815 C   0  0  0  0  0  0  0  0  0  0  0  0
    6.8541   10.4412   22.9254 O   0  0  0  0  0  0  0  0  0  0  0  0
  1  8  4  0
  1 12  4  0
  2  9  1  0
  2 11  4  0
  2 25  4  0
  3 12  4  0
  3 14  1  0
  3 23  4  0
  4 13  4  0
  4 21  4  0
  4 24  1  0
  5  8  4  0
  5 23  4  0
  6 18  2  0
  7 15  4  0
  7 16  1  0
  7 27  4  0
  8 18  1  0
 10 18  1  0
 10 20  1  0
 11 15  4  0
 11 26  1  0
 13 22  4  0
 16 19  1  0
 16 20  1  0
 17 19  4  0
 17 21  4  0
 19 22  4  0
 20 28  1  0
 25 27  4  0
M  END
$$$$

 Created by Python create_sdf_string function

 28 43  0  0  0  0  0  0  0  0999 V2000
   11.4009   10.8749   18.9734 C   0  0  0  0  0  0  0  0  0  0  0  0
    3.5793    8.0405   20.2752 C   0  0  0  0  0  0  0  0  0  0  0  0
   13.5711   10.2809   19.4340 C   0  0  0  0  0  0  0  0  0  0  0  0
    9.6776    5.1953   22.8710 F   0  0  0  0  0  0  0  0  0  0  0  0
   11.7144    9.8489   21.2375 C   0  0  0  0  0  0  0  0  0  0  0  0
    8.9292   11.3037   19.8424 O   0  0  0  0  0  0  0  0  0  0  0  0
    5.8262    8.4855   20.9508 C   0  0  0  0  0  0  0  0  0  0  0  0
   11.1060   10.3914   20.4273 C   0  0  0  0  0  0  0  0  0  0  0  0
    2.0459    8.1022   19.6495 O   0  0  0  0  0  0  0  0  0  0  0  0
    9.1486   10.0755   22.0516 N   0  0  0  0  0  0  0  0  0  0  0  0
    3.9846    9.2323   20.3567 C   0  0  0  0  0  0  0  0  0  0  0  0
   12.5893   10.8093   18.6136 C   0  0  0  0  0  0  0  0  0  0  0  0
    9.3371    6.2164   23.8314 C   0  0  0  0  0  0  0  0  0  0  0  0
   14.9465   10.2038   18.9298 O   0  0  0  0  0  0  0  0  0  0  0  0
    5.3390    9.4218   20.5790 C   0  0  0  0  0  0  0  0  0  0  0  0
    7.3211    8.4046   21.4627 C   0  0  0  0  0  0  0  0  0  0  0  0
    8.8171    6.6560   21.0823 C   0  0  0  0  0  0  0  0  0  0  0  0
    9.7395   10.7574   20.6933 C   0  0  0  0  0  0  0  0  0  0  0  0
    7.4921   10.1304   21.8309 C   0  0  0  0  0  0  0  0  0  0  0  0
    9.4858    5.4068   21.5094 C   0  0  0  0  0  0  0  0  0  0  0  0
    8.5160    7.4524   23.0749 C   0  0  0  0  0  0  0  0  0  0  0  0
   13.4722    9.6685   20.6000 C   0  0  0  0  0  0  0  0  0  0  0  0
   10.3739    4.1900   23.5048 O   0  0  0  0  0  0  0  0  0  0  0  0
    4.0959    6.8147   20.6951 C   0  0  0  0  0  0  0  0  0  0  0  0
    3.1519   10.4457   19.7197 O   0  0  0  0  0  0  0  0  0  0  0  0
    5.3621    7.1394   21.3918 C   0  0  0  0  0  0  0  0  0  0  0  0
    6.8707   10.4525   22.7976 O   0  0  0  0  0  0  0  0  0  0  0  0
    8.3137    7.3953   21.8016 He  0  0  0  0  0  0  0  0  0  0  0  0
  1  3  4  0
  1  8  4  0
  1 12  4  0
  1 16  2  0
  1 20  1  0
  2  5  1  0
  2  9  3  0
  2 11  4  0
  2 24  4  0
  3 12  4  0
  3 14  1  0
  3 22  4  0
  4 13  4  0
  4 18  2  0
  4 20  4  0
  4 23  1  0
  5  8  4  0
  5 15  2  0
  5 22  4  0
  6 18  2  0
  7 15  4  0
  7 16  1  0
  7 26  4  0
  7 27  3  0
  8 18  1  0
  8 19  1  0
  8 20  4  0
  8 23  3  0
  9 25  2  0
 10 18  1  0
 10 19  1  0
 11 15  4  0
 11 23  2  0
 11 24  1  0
 11 25  1  0
 13 21  4  0
 16 19  1  0
 17 20  4  0
 18 27  4  0
 19 27  1  0
 21 26  1  0
 22 25  1  0
 24 26  4  0
M  END
$$$$

 Created by Python create_sdf_string function

 28 30  0  0  0  0  0  0  0  0999 V2000
   11.3744   10.9182   19.0381 C   0  0  0  0  0  0  0  0  0  0  0  0
    3.3509    8.0353   20.2125 C   0  0  0  0  0  0  0  0  0  0  0  0
   13.6191   10.2251   19.4244 C   0  0  0  0  0  0  0  0  0  0  0  0
    9.7018    5.3050   22.8724 C   0  0  0  0  0  0  0  0  0  0  0  0
   11.9639    9.8500   21.1167 C   0  0  0  0  0  0  0  0  0  0  0  0
    8.9428   11.3837   19.9197 O   0  0  0  0  0  0  0  0  0  0  0  0
    5.9574    8.3520   21.0979 C   0  0  0  0  0  0  0  0  0  0  0  0
   11.0401   10.4731   20.2896 C   0  0  0  0  0  0  0  0  0  0  0  0
    2.1391    7.9270   19.7244 O   0  0  0  0  0  0  0  0  0  0  0  0
    9.1131   10.1775   21.7827 N   0  0  0  0  0  0  0  0  0  0  0  0
    3.9454    9.3200   20.1889 C   0  0  0  0  0  0  0  0  0  0  0  0
   12.6786   10.7931   18.6017 C   0  0  0  0  0  0  0  0  0  0  0  0
    9.2697    6.2549   23.7206 C   0  0  0  0  0  0  0  0  0  0  0  0
   14.9070   10.1787   18.9891 O   0  0  0  0  0  0  0  0  0  0  0  0
    5.2328    9.4482   20.6561 C   0  0  0  0  0  0  0  0  0  0  0  0
    7.3774    8.5306   21.3779 C   0  0  0  0  0  0  0  0  0  0  0  0
    8.7591    6.5434   21.0354 C   0  0  0  0  0  0  0  0  0  0  0  0
    9.6695   10.6856   20.6787 C   0  0  0  0  0  0  0  0  0  0  0  0
    8.2768    7.4507   21.9161 C   0  0  0  0  0  0  0  0  0  0  0  0
    7.6449   10.0180   21.7554 C   0  0  0  0  0  0  0  0  0  0  0  0
    9.4965    5.4414   21.5258 C   0  0  0  0  0  0  0  0  0  0  0  0
    8.5517    7.3830   23.2401 C   0  0  0  0  0  0  0  0  0  0  0  0
   13.2660    9.7370   20.6551 C   0  0  0  0  0  0  0  0  0  0  0  0
   10.3337    4.2106   23.3875 O   0  0  0  0  0  0  0  0  0  0  0  0
    4.0567    6.9731   20.7399 C   0  0  0  0  0  0  0  0  0  0  0  0
    3.1921   10.3318   19.7627 O   0  0  0  0  0  0  0  0  0  0  0  0
    5.3889    7.1444   21.1724 C   0  0  0  0  0  0  0  0  0  0  0  0
    6.9131   10.4735   22.7765 O   0  0  0  0  0  0  0  0  0  0  0  0
  1  8  4  0
  1 12  4  0
  2  9  1  0
  2 11  4  0
  2 25  4  0
  3 12  4  0
  3 14  1  0
  3 23  4  0
  4 13  4  0
  4 21  4  0
  4 24  1  0
  5  8  4  0
  5 23  4  0
  6 18  2  0
  7 15  4  0
  7 16  1  0
  7 27  4  0
  8 18  1  0
 10 18  1  0
 10 20  1  0
 11 15  4  0
 11 26  1  0
 13 22  4  0
 16 19  1  0
 16 20  1  0
 17 19  4  0
 17 21  4  0
 19 22  4  0
 20 28  1  0
 25 27  4  0
M  END
$$$$

 Created by Python create_sdf_string function

 28 37  0  0  0  0  0  0  0  0999 V2000
   11.4622   10.9793   19.0462 C   0  0  0  0  0  0  0  0  0  0  0  0
    3.4551    8.0878   20.2286 C   0  0  0  0  0  0  0  0  0  0  0  0
   13.6935   10.0748   19.5418 C   0  0  0  0  0  0  0  0  0  0  0  0
    9.8907    5.0454   22.9134 C   0  0  0  0  0  0  0  0  0  0  0  0
   11.9169    9.7242   21.1128 C   0  0  0  0  0  0  0  0  0  0  0  0
    8.8230   11.4657   19.7693 O   0  0  0  0  0  0  0  0  0  0  0  0
    5.9167    8.4034   21.0914 C   0  0  0  0  0  0  0  0  0  0  0  0
   11.0900   10.5690   20.4107 C   0  0  0  0  0  0  0  0  0  0  0  0
    2.1163    7.9875   19.8752 O   0  0  0  0  0  0  0  0  0  0  0  0
    8.9406   10.2422   21.5481 N   0  0  0  0  0  0  0  0  0  0  0  0
    3.8447    9.0695   20.1204 C   0  0  0  0  0  0  0  0  0  0  0  0
   12.7373   10.8824   18.7675 C   0  0  0  0  0  0  0  0  0  0  0  0
    9.2544    6.2821   23.6453 C   0  0  0  0  0  0  0  0  0  0  0  0
   15.0005   10.1900   18.9311 O   0  0  0  0  0  0  0  0  0  0  0  0
    5.3051    9.4036   20.5997 C   0  0  0  0  0  0  0  0  0  0  0  0
    7.3655    8.4726   21.4896 C   0  0  0  0  0  0  0  0  0  0  0  0
    8.7373    6.6187   21.1806 C   0  0  0  0  0  0  0  0  0  0  0  0
    9.7180   10.7571   20.6087 C   0  0  0  0  0  0  0  0  0  0  0  0
    8.4244    7.6084   22.0528 F   0  0  0  0  0  0  0  0  0  0  0  0
    7.6872   10.2279   21.7214 C   0  0  0  0  0  0  0  0  0  0  0  0
    9.4959    5.5043   21.5222 C   0  0  0  0  0  0  0  0  0  0  0  0
    8.5675    7.4500   23.2530 C   0  0  0  0  0  0  0  0  0  0  0  0
   13.3620    9.8219   20.6602 C   0  0  0  0  0  0  0  0  0  0  0  0
   10.3346    4.1683   23.2328 O   0  0  0  0  0  0  0  0  0  0  0  0
    4.2542    6.9531   20.7674 C   0  0  0  0  0  0  0  0  0  0  0  0
    3.2265   10.3728   19.8104 F   0  0  0  0  0  0  0  0  0  0  0  0
    5.2614    7.3429   21.2092 C   0  0  0  0  0  0  0  0  0  0  0  0
    7.0372   10.6487   22.6394 O   0  0  0  0  0  0  0  0  0  0  0  0
  1  8  2  0
  1 12  4  0
  2  6  2  0
  2  9  1  0
  2 11  4  0
  2 25  4  0
  3 12  4  0
  3 14  1  0
  3 23  4  0
  4 13  4  0
  4 24  1  0
  5  8  4  0
  5 23  4  0
  6 18  2  0
  7 15  4  0
  7 16  1  0
  7 17  2  0
  7 27  4  0
  8 18  1  0
  9 11  2  0
 10 18  1  0
 10 20  1  0
 11 15  4  0
 12 28  3  0
 13 22  4  0
 14 21  1  0
 15 19  4  0
 16 19  1  0
 16 20  1  0
 17 19  4  0
 17 21  4  0
 19 22  4  0
 20 28  1  0
 21 24  4  0
 23 28  1  0
 24 27  3  0
 25 27  4  0
M  END
$$$$

 Created by Python create_sdf_string function

 28 30  0  0  0  0  0  0  0  0999 V2000
   11.4751   11.0452   19.0416 C   0  0  0  0  0  0  0  0  0  0  0  0
    3.3940    8.0159   20.2562 C   0  0  0  0  0  0  0  0  0  0  0  0
   13.6762   10.2232   19.4936 C   0  0  0  0  0  0  0  0  0  0  0  0
    9.7276    5.3055   22.8380 C   0  0  0  0  0  0  0  0  0  0  0  0
   11.9269    9.8815   21.0811 C   0  0  0  0  0  0  0  0  0  0  0  0
    8.9581   11.5051   19.8157 O   0  0  0  0  0  0  0  0  0  0  0  0
    5.9809    8.4040   21.1182 C   0  0  0  0  0  0  0  0  0  0  0  0
   11.0511   10.5557   20.2360 C   0  0  0  0  0  0  0  0  0  0  0  0
    2.1473    7.8852   19.8425 O   0  0  0  0  0  0  0  0  0  0  0  0
    9.0972   10.2389   21.6178 N   0  0  0  0  0  0  0  0  0  0  0  0
    3.9521    9.2904   20.1821 C   0  0  0  0  0  0  0  0  0  0  0  0
   12.7964   10.8590   18.6737 C   0  0  0  0  0  0  0  0  0  0  0  0
    9.3176    6.2561   23.7128 C   0  0  0  0  0  0  0  0  0  0  0  0
   14.9479   10.1095   19.0710 O   0  0  0  0  0  0  0  0  0  0  0  0
    5.2474    9.4692   20.6156 C   0  0  0  0  0  0  0  0  0  0  0  0
    7.3880    8.5849   21.4994 C   0  0  0  0  0  0  0  0  0  0  0  0
    8.7532    6.6139   21.0799 C   0  0  0  0  0  0  0  0  0  0  0  0
    9.6614   10.7884   20.5627 C   0  0  0  0  0  0  0  0  0  0  0  0
    8.2719    7.5040   21.9818 C   0  0  0  0  0  0  0  0  0  0  0  0
    7.7354   10.0439   21.7994 C   0  0  0  0  0  0  0  0  0  0  0  0
    9.4903    5.4912   21.5126 C   0  0  0  0  0  0  0  0  0  0  0  0
    8.5902    7.3939   23.2823 C   0  0  0  0  0  0  0  0  0  0  0  0
   13.2364    9.7155   20.6898 C   0  0  0  0  0  0  0  0  0  0  0  0
   10.3527    4.2023   23.2542 O   0  0  0  0  0  0  0  0  0  0  0  0
    4.1013    6.9728   20.7638 C   0  0  0  0  0  0  0  0  0  0  0  0
    3.1823   10.2802   19.7328 O   0  0  0  0  0  0  0  0  0  0  0  0
    5.4048    7.1920   21.1957 C   0  0  0  0  0  0  0  0  0  0  0  0
    6.9868   10.7050   22.6125 O   0  0  0  0  0  0  0  0  0  0  0  0
  1  8  4  0
  1 12  4  0
  2  9  1  0
  2 11  4  0
  2 25  4  0
  3 12  4  0
  3 14  1  0
  3 23  4  0
  4 13  4  0
  4 21  4  0
  4 24  1  0
  5  8  4  0
  5 23  4  0
  6 18  2  0
  7 15  4  0
  7 16  1  0
  7 27  4  0
  8 18  1  0
 10 18  1  0
 10 20  1  0
 11 15  4  0
 11 26  1  0
 13 22  4  0
 16 19  1  0
 16 20  1  0
 17 19  4  0
 17 21  4  0
 19 22  4  0
 20 28  1  0
 25 27  4  0
M  END
$$$$

 Created by Python create_sdf_string function

 28 38  0  0  0  0  0  0  0  0999 V2000
    3.3225    8.1353   20.2164 C   0  0  0  0  0  0  0  0  0  0  0  0
   13.6656   10.2608   19.4028 C   0  0  0  0  0  0  0  0  0  0  0  0
    9.6919    5.3792   22.8810 C   0  0  0  0  0  0  0  0  0  0  0  0
   11.8858    9.9697   21.2332 C   0  0  0  0  0  0  0  0  0  0  0  0
    8.8441   11.5136   19.9113 O   0  0  0  0  0  0  0  0  0  0  0  0
    5.9307    8.4022   20.8607 C   0  0  0  0  0  0  0  0  0  0  0  0
   10.8263   10.6519   20.2267 C   0  0  0  0  0  0  0  0  0  0  0  0
    2.1152    7.9600   19.8474 N   0  0  0  0  0  0  0  0  0  0  0  0
    9.0231   10.1409   21.5429 N   0  0  0  0  0  0  0  0  0  0  0  0
    3.8423    9.2372   20.1915 C   0  0  0  0  0  0  0  0  0  0  0  0
   12.7581   10.8342   18.6337 C   0  0  0  0  0  0  0  0  0  0  0  0
    9.4710    6.3856   23.7276 C   0  0  0  0  0  0  0  0  0  0  0  0
   14.9540   10.2337   19.0565 O   0  0  0  0  0  0  0  0  0  0  0  0
    5.1324    9.4040   20.6235 C   0  0  0  0  0  0  0  0  0  0  0  0
    7.4839    8.4165   21.4742 C   0  0  0  0  0  0  0  0  0  0  0  0
    8.6892    6.7302   20.9830 C   0  0  0  0  0  0  0  0  0  0  0  0
    9.6672   10.6797   20.5671 C   0  0  0  0  0  0  0  0  0  0  0  0
    8.2629    7.5214   21.8901 C   0  0  0  0  0  0  0  0  0  0  0  0
    7.7647   10.0556   21.7854 C   0  0  0  0  0  0  0  0  0  0  0  0
    9.4744    5.4943   21.6064 C   0  0  0  0  0  0  0  0  0  0  0  0
    8.4690    7.3109   23.3167 C   0  0  0  0  0  0  0  0  0  0  0  0
   13.1561    9.8370   20.6283 C   0  0  0  0  0  0  0  0  0  0  0  0
   10.4465    4.1912   23.3352 O   0  0  0  0  0  0  0  0  0  0  0  0
    4.0600    6.8671   20.5450 C   0  0  0  0  0  0  0  0  0  0  0  0
    3.2882   10.2155   19.6789 O   0  0  0  0  0  0  0  0  0  0  0  0
    5.3661    7.3571   21.1241 C   0  0  0  0  0  0  0  0  0  0  0  0
    6.9637   10.5856   22.5321 O   0  0  0  0  0  0  0  0  0  0  0  0
   11.3315   10.8971   19.0417 He  0  0  0  0  0  0  0  0  0  0  0  0
  1  8  1  0
  1 10  4  0
  1 14  3  0
  1 24  4  0
  2 11  4  0
  2 13  3  0
  2 21  2  0
  2 22  4  0
  3 12  4  0
  3 20  4  0
  3 23  1  0
  4  6  2  0
  4  7  4  0
  4 22  4  0
  5 20  4  0
  6 14  4  0
  6 15  1  0
  6 17  2  0
  6 25  4  0
  6 26  4  0
  7 17  1  0
  7 26  3  0
  8 18  3  0
  8 27  1  0
  9 17  1  0
  9 19  1  0
 10 14  4  0
 10 23  1  0
 10 25  1  0
 11 12  2  0
 14 25  2  0
 15 18  1  0
 15 19  1  0
 16 18  4  0
 16 20  4  0
 18 21  4  0
 19 27  1  0
 24 26  4  0
M  END
$$$$

 Created by Python create_sdf_string function

 28 30  0  0  0  0  0  0  0  0999 V2000
   11.3842   10.9974   18.9656 C   0  0  0  0  0  0  0  0  0  0  0  0
    3.3557    8.0090   20.2096 C   0  0  0  0  0  0  0  0  0  0  0  0
   13.6188   10.2790   19.4680 C   0  0  0  0  0  0  0  0  0  0  0  0
    9.7599    5.3779   22.8657 C   0  0  0  0  0  0  0  0  0  0  0  0
   11.8829    9.9858   21.0979 C   0  0  0  0  0  0  0  0  0  0  0  0
    8.8944   11.5434   19.9008 O   0  0  0  0  0  0  0  0  0  0  0  0
    5.9448    8.3647   21.0487 C   0  0  0  0  0  0  0  0  0  0  0  0
   10.9956   10.5859   20.2003 C   0  0  0  0  0  0  0  0  0  0  0  0
    2.0568    7.8809   19.8210 O   0  0  0  0  0  0  0  0  0  0  0  0
    9.0823   10.1639   21.6048 N   0  0  0  0  0  0  0  0  0  0  0  0
    3.9222    9.2959   20.1634 C   0  0  0  0  0  0  0  0  0  0  0  0
   12.7087   10.8296   18.6028 C   0  0  0  0  0  0  0  0  0  0  0  0
    9.3206    6.3279   23.7344 C   0  0  0  0  0  0  0  0  0  0  0  0
   14.8887   10.1894   19.0942 O   0  0  0  0  0  0  0  0  0  0  0  0
    5.1996    9.4500   20.6160 C   0  0  0  0  0  0  0  0  0  0  0  0
    7.3577    8.5370   21.4104 C   0  0  0  0  0  0  0  0  0  0  0  0
    8.7343    6.5694   21.0414 C   0  0  0  0  0  0  0  0  0  0  0  0
    9.6292   10.8193   20.5763 C   0  0  0  0  0  0  0  0  0  0  0  0
    8.2210    7.4713   21.9308 C   0  0  0  0  0  0  0  0  0  0  0  0
    7.7381    9.9351   21.8070 C   0  0  0  0  0  0  0  0  0  0  0  0
    9.4996    5.5009   21.5385 C   0  0  0  0  0  0  0  0  0  0  0  0
    8.5306    7.4072   23.2619 C   0  0  0  0  0  0  0  0  0  0  0  0
   13.1938    9.8469   20.6891 C   0  0  0  0  0  0  0  0  0  0  0  0
   10.4292    4.2920   23.3151 O   0  0  0  0  0  0  0  0  0  0  0  0
    4.0750    6.9463   20.6312 C   0  0  0  0  0  0  0  0  0  0  0  0
    3.1619   10.2477   19.6938 O   0  0  0  0  0  0  0  0  0  0  0  0
    5.3716    7.1417   21.0300 C   0  0  0  0  0  0  0  0  0  0  0  0
    6.9522   10.6483   22.5027 O   0  0  0  0  0  0  0  0  0  0  0  0
  1  8  4  0
  1 12  4  0
  2  9  1  0
  2 11  4  0
  2 25  4  0
  3 12  4  0
  3 14  1  0
  3 23  4  0
  4 13  4  0
  4 21  4  0
  4 24  1  0
  5  8  4  0
  5 23  4  0
  6 18  2  0
  7 15  4  0
  7 16  1  0
  7 27  4  0
  8 18  1  0
 10 18  1  0
 10 20  1  0
 11 15  4  0
 11 26  1  0
 13 22  4  0
 16 19  1  0
 16 20  1  0
 17 19  4  0
 17 21  4  0
 19 22  4  0
 20 28  1  0
 25 27  4  0
M  END
$$$$

 Created by Python create_sdf_string function

 28 33  0  0  0  0  0  0  0  0999 V2000
   11.3211   10.8431   19.0743 C   0  0  0  0  0  0  0  0  0  0  0  0
    3.5836    7.8822   20.2551 C   0  0  0  0  0  0  0  0  0  0  0  0
   13.6997   10.1274   19.5138 C   0  0  0  0  0  0  0  0  0  0  0  0
    9.7211    5.4526   22.7343 C   0  0  0  0  0  0  0  0  0  0  0  0
   11.9244   10.0487   21.0188 C   0  0  0  0  0  0  0  0  0  0  0  0
    8.9265   11.5162   19.7401 O   0  0  0  0  0  0  0  0  0  0  0  0
    6.0288    8.2491   21.1012 C   0  0  0  0  0  0  0  0  0  0  0  0
   10.9806   10.5839   20.1728 C   0  0  0  0  0  0  0  0  0  0  0  0
    1.8777    7.8904   19.8054 O   0  0  0  0  0  0  0  0  0  0  0  0
    9.1449   10.3278   21.6524 N   0  0  0  0  0  0  0  0  0  0  0  0
    4.0753    9.4845   20.3255 C   0  0  0  0  0  0  0  0  0  0  0  0
   12.7528   10.8153   18.6547 C   0  0  0  0  0  0  0  0  0  0  0  0
    9.3158    6.2853   23.9069 F   0  0  0  0  0  0  0  0  0  0  0  0
    5.0377    9.3814   20.6164 C   0  0  0  0  0  0  0  0  0  0  0  0
    7.4181    8.3771   21.4522 C   0  0  0  0  0  0  0  0  0  0  0  0
    8.7240    6.6638   21.0059 C   0  0  0  0  0  0  0  0  0  0  0  0
    9.5440   10.9342   20.5456 C   0  0  0  0  0  0  0  0  0  0  0  0
    8.1702    7.6181   22.0121 C   0  0  0  0  0  0  0  0  0  0  0  0
    9.4282    5.5090   21.6542 C   0  0  0  0  0  0  0  0  0  0  0  0
    8.7255    7.4708   23.1114 F   0  0  0  0  0  0  0  0  0  0  0  0
   13.4009    9.7009   20.6427 C   0  0  0  0  0  0  0  0  0  0  0  0
   10.3306    4.4641   23.3198 O   0  0  0  0  0  0  0  0  0  0  0  0
    3.9443    6.8444   20.6254 C   0  0  0  0  0  0  0  0  0  0  0  0
    3.2381   10.3067   19.5955 O   0  0  0  0  0  0  0  0  0  0  0  0
    5.3275    7.0786   21.1331 C   0  0  0  0  0  0  0  0  0  0  0  0
    6.9574   10.7689   22.5063 O   0  0  0  0  0  0  0  0  0  0  0  0
   14.9485   10.3039   19.1153 He  0  0  0  0  0  0  0  0  0  0  0  0
    7.7632   10.1122   21.8947 He  0  0  0  0  0  0  0  0  0  0  0  0
  1  7  2  0
  1  8  4  0
  1 12  4  0
  2  4  4  0
  2  9  1  0
  2 11  4  0
  2 25  2  0
  3 12  4  0
  3 21  4  0
  3 26  3  0
  4  6  4  0
  4 13  4  0
  4 22  1  0
  5  8  4  0
  5 21  4  0
  6 17  2  0
  7 12  2  0
  7 14  3  0
  7 25  4  0
  8 17  1  0
  9 19  1  0
 10 17  1  0
 10 21  3  0
 11 14  4  0
 11 24  1  0
 12 14  2  0
 13 20  4  0
 14 19  4  0
 15 18  1  0
 16 18  4  0
 17 19  1  0
 18 20  4  0
 23 25  4  0
M  END
$$$$

 Created by Python create_sdf_string function

 28 30  0  0  0  0  0  0  0  0999 V2000
   11.4445   10.9667   18.9437 C   0  0  0  0  0  0  0  0  0  0  0  0
    3.3405    8.0048   20.2268 C   0  0  0  0  0  0  0  0  0  0  0  0
   13.6457   10.2474   19.4883 C   0  0  0  0  0  0  0  0  0  0  0  0
    9.7210    5.4263   22.8593 C   0  0  0  0  0  0  0  0  0  0  0  0
   11.8972    9.9762   21.0606 C   0  0  0  0  0  0  0  0  0  0  0  0
    8.9487   11.5665   19.8009 O   0  0  0  0  0  0  0  0  0  0  0  0
    5.9518    8.3681   21.1141 C   0  0  0  0  0  0  0  0  0  0  0  0
   11.0206   10.5939   20.1855 C   0  0  0  0  0  0  0  0  0  0  0  0
    2.0757    7.8742   19.8116 O   0  0  0  0  0  0  0  0  0  0  0  0
    9.0943   10.2788   21.6168 N   0  0  0  0  0  0  0  0  0  0  0  0
    3.9122    9.2887   20.1759 C   0  0  0  0  0  0  0  0  0  0  0  0
   12.7722   10.7743   18.5932 C   0  0  0  0  0  0  0  0  0  0  0  0
    9.3453    6.4000   23.7171 C   0  0  0  0  0  0  0  0  0  0  0  0
   14.9698   10.1729   19.1399 O   0  0  0  0  0  0  0  0  0  0  0  0
    5.2019    9.4519   20.6684 C   0  0  0  0  0  0  0  0  0  0  0  0
    7.3478    8.5794   21.5068 C   0  0  0  0  0  0  0  0  0  0  0  0
    8.6809    6.6197   21.0546 C   0  0  0  0  0  0  0  0  0  0  0  0
    9.6291   10.8566   20.5193 C   0  0  0  0  0  0  0  0  0  0  0  0
    8.2348    7.5342   21.9587 C   0  0  0  0  0  0  0  0  0  0  0  0
    7.7440    9.9947   21.8019 N   0  0  0  0  0  0  0  0  0  0  0  0
    9.4517    5.5158   21.5308 C   0  0  0  0  0  0  0  0  0  0  0  0
    8.6147    7.4915   23.2538 C   0  0  0  0  0  0  0  0  0  0  0  0
   13.2049    9.8085   20.7030 C   0  0  0  0  0  0  0  0  0  0  0  0
   10.3852    4.3639   23.3401 O   0  0  0  0  0  0  0  0  0  0  0  0
    4.0826    6.9240   20.6770 C   0  0  0  0  0  0  0  0  0  0  0  0
    3.1792   10.2693   19.6641 O   0  0  0  0  0  0  0  0  0  0  0  0
    5.3923    7.1268   21.1051 C   0  0  0  0  0  0  0  0  0  0  0  0
    6.9828   10.7953   22.4774 O   0  0  0  0  0  0  0  0  0  0  0  0
  1  8  4  0
  1 12  4  0
  2  9  1  0
  2 11  4  0
  2 25  4  0
  3 12  4  0
  3 14  1  0
  3 23  4  0
  4 13  4  0
  4 21  4  0
  4 24  1  0
  5  8  4  0
  5 23  4  0
  6 18  2  0
  7 15  4  0
  7 16  1  0
  7 27  4  0
  8 18  1  0
 10 18  1  0
 10 20  1  0
 11 15  4  0
 11 26  1  0
 13 22  4  0
 16 19  1  0
 16 20  1  0
 17 19  4  0
 17 21  4  0
 19 22  4  0
 20 28  1  0
 25 27  4  0
M  END
$$$$

 Created by Python create_sdf_string function

 28 34  0  0  0  0  0  0  0  0999 V2000
   11.4956   11.0892   18.8508 C   0  0  0  0  0  0  0  0  0  0  0  0
    3.1901    8.0379   20.3351 C   0  0  0  0  0  0  0  0  0  0  0  0
   13.4510   10.2179   19.5037 C   0  0  0  0  0  0  0  0  0  0  0  0
    9.7960    5.5918   22.8643 C   0  0  0  0  0  0  0  0  0  0  0  0
   12.0063    9.9812   21.0413 C   0  0  0  0  0  0  0  0  0  0  0  0
    9.0846   11.5302   19.7219 O   0  0  0  0  0  0  0  0  0  0  0  0
    5.9594    8.4406   20.9551 C   0  0  0  0  0  0  0  0  0  0  0  0
   10.9783   10.6754   20.1783 C   0  0  0  0  0  0  0  0  0  0  0  0
    2.0145    8.0456   19.8373 O   0  0  0  0  0  0  0  0  0  0  0  0
    9.1168   10.3323   21.6891 N   0  0  0  0  0  0  0  0  0  0  0  0
    4.0267    9.2666   20.2018 C   0  0  0  0  0  0  0  0  0  0  0  0
   12.7850   10.7549   18.5233 C   0  0  0  0  0  0  0  0  0  0  0  0
   14.9743   10.2246   19.0896 O   0  0  0  0  0  0  0  0  0  0  0  0
    5.0556    9.3801   20.6103 C   0  0  0  0  0  0  0  0  0  0  0  0
    7.3095    8.7286   21.5496 C   0  0  0  0  0  0  0  0  0  0  0  0
    8.8287    6.5939   21.1061 C   0  0  0  0  0  0  0  0  0  0  0  0
    9.6113   10.7475   20.4536 C   0  0  0  0  0  0  0  0  0  0  0  0
    8.2734    7.6058   21.9512 C   0  0  0  0  0  0  0  0  0  0  0  0
    7.7093    9.9937   21.8192 N   0  0  0  0  0  0  0  0  0  0  0  0
    9.4353    5.6125   21.5219 C   0  0  0  0  0  0  0  0  0  0  0  0
    8.6451    7.4693   23.2219 C   0  0  0  0  0  0  0  0  0  0  0  0
   13.0903    9.8734   20.8572 C   0  0  0  0  0  0  0  0  0  0  0  0
   10.2768    4.2186   23.3810 O   0  0  0  0  0  0  0  0  0  0  0  0
    4.1665    7.0872   20.5994 C   0  0  0  0  0  0  0  0  0  0  0  0
    3.2595   10.2716   19.6904 O   0  0  0  0  0  0  0  0  0  0  0  0
    5.3083    7.2285   21.2497 C   0  0  0  0  0  0  0  0  0  0  0  0
    9.3096    6.4066   23.8017 He  0  0  0  0  0  0  0  0  0  0  0  0
    6.9404   10.8226   22.2939 He  0  0  0  0  0  0  0  0  0  0  0  0
  1  8  4  0
  1 12  4  0
  2  9  1  0
  2 10  2  0
  2 11  4  0
  2 22  1  0
  2 24  4  0
  3 12  4  0
  3 13  1  0
  3 22  4  0
  4  5  1  0
  4 20  4  0
  4 22  1  0
  4 23  1  0
  5  8  4  0
  5 22  4  0
  6 17  2  0
  6 25  2  0
  7 14  4  0
  7 15  1  0
  7 26  4  0
 10 17  1  0
 10 19  1  0
 11 14  4  0
 11 25  1  0
 12 14  1  0
 15 18  1  0
 15 19  1  0
 16 17  4  0
 16 18  4  0
 16 20  4  0
 17 24  3  0
 18 21  4  0
 19 21  3  0
M  END
$$$$

 Created by Python create_sdf_string function

 28 30  0  0  0  0  0  0  0  0999 V2000
   11.4443   11.0285   18.8889 C   0  0  0  0  0  0  0  0  0  0  0  0
    3.3193    8.0402   20.2606 C   0  0  0  0  0  0  0  0  0  0  0  0
   13.6258   10.2591   19.4838 C   0  0  0  0  0  0  0  0  0  0  0  0
    9.7187    5.4677   22.8844 C   0  0  0  0  0  0  0  0  0  0  0  0
   11.8604   10.0403   21.0738 C   0  0  0  0  0  0  0  0  0  0  0  0
    8.9731   11.5545   19.7420 O   0  0  0  0  0  0  0  0  0  0  0  0
    5.9567    8.4452   21.0965 C   0  0  0  0  0  0  0  0  0  0  0  0
   11.0199   10.6260   20.1555 C   0  0  0  0  0  0  0  0  0  0  0  0
    2.0566    7.9612   19.8740 O   0  0  0  0  0  0  0  0  0  0  0  0
    9.0739   10.3292   21.5902 N   0  0  0  0  0  0  0  0  0  0  0  0
    3.9142    9.3118   20.1852 C   0  0  0  0  0  0  0  0  0  0  0  0
   12.7796   10.8120   18.5544 C   0  0  0  0  0  0  0  0  0  0  0  0
    9.3291    6.4370   23.7622 C   0  0  0  0  0  0  0  0  0  0  0  0
   14.9288   10.1396   19.1500 O   0  0  0  0  0  0  0  0  0  0  0  0
    5.2146    9.4683   20.6207 C   0  0  0  0  0  0  0  0  0  0  0  0
    7.3503    8.6556   21.4729 C   0  0  0  0  0  0  0  0  0  0  0  0
    8.7113    6.6906   21.0758 C   0  0  0  0  0  0  0  0  0  0  0  0
    9.6314   10.8657   20.4982 C   0  0  0  0  0  0  0  0  0  0  0  0
    8.2445    7.5955   21.9675 C   0  0  0  0  0  0  0  0  0  0  0  0
    7.7282   10.0034   21.7557 N   0  0  0  0  0  0  0  0  0  0  0  0
    9.4922    5.5926   21.5354 C   0  0  0  0  0  0  0  0  0  0  0  0
    8.5806    7.5238   23.2621 C   0  0  0  0  0  0  0  0  0  0  0  0
   13.1878    9.8567   20.7173 C   0  0  0  0  0  0  0  0  0  0  0  0
   10.3288    4.3406   23.3535 O   0  0  0  0  0  0  0  0  0  0  0  0
    4.0894    7.0129   20.7349 C   0  0  0  0  0  0  0  0  0  0  0  0
    3.1749   10.2839   19.6815 O   0  0  0  0  0  0  0  0  0  0  0  0
    5.3864    7.2212   21.1296 C   0  0  0  0  0  0  0  0  0  0  0  0
    6.9501   10.8948   22.3222 C   0  0  0  0  0  0  0  0  0  0  0  0
  1  8  4  0
  1 12  4  0
  2  9  1  0
  2 11  4  0
  2 25  4  0
  3 12  4  0
  3 14  1  0
  3 23  4  0
  4 13  4  0
  4 21  4  0
  4 24  1  0
  5  8  4  0
  5 23  4  0
  6 18  2  0
  7 15  4  0
  7 16  1  0
  7 27  4  0
  8 18  1  0
 10 18  1  0
 10 20  1  0
 11 15  4  0
 11 26  1  0
 13 22  4  0
 16 19  1  0
 16 20  1  0
 17 19  4  0
 17 21  4  0
 19 22  4  0
 20 28  1  0
 25 27  4  0
M  END
$$$$

 Created by Python create_sdf_string function

 28 41  0  0  0  0  0  0  0  0999 V2000
   11.5094   10.9709   18.7921 C   0  0  0  0  0  0  0  0  0  0  0  0
    3.3191    7.9091   20.3508 C   0  0  0  0  0  0  0  0  0  0  0  0
   13.5894   10.2441   19.4438 C   0  0  0  0  0  0  0  0  0  0  0  0
    9.6439    5.5174   22.9064 C   0  0  0  0  0  0  0  0  0  0  0  0
   12.0181   10.0350   21.0347 C   0  0  0  0  0  0  0  0  0  0  0  0
    8.9932   11.6518   19.6120 O   0  0  0  0  0  0  0  0  0  0  0  0
    6.0573    8.3475   21.1041 C   0  0  0  0  0  0  0  0  0  0  0  0
   11.1315   10.5651   19.9819 C   0  0  0  0  0  0  0  0  0  0  0  0
    1.9258    7.8861   19.8829 O   0  0  0  0  0  0  0  0  0  0  0  0
    9.0214   10.3754   21.6616 N   0  0  0  0  0  0  0  0  0  0  0  0
   12.8793   10.6487   18.5655 C   0  0  0  0  0  0  0  0  0  0  0  0
    9.2810    6.3189   23.8017 C   0  0  0  0  0  0  0  0  0  0  0  0
   14.9104   10.1281   19.0401 O   0  0  0  0  0  0  0  0  0  0  0  0
    5.2078    9.4537   20.6712 C   0  0  0  0  0  0  0  0  0  0  0  0
    7.4650    8.4415   21.4528 C   0  0  0  0  0  0  0  0  0  0  0  0
    8.6361    6.7278   21.0868 S   0  0  0  0  0  0  0  0  0  0  0  0
    9.7714   10.8687   20.5419 C   0  0  0  0  0  0  0  0  0  0  0  0
    8.1673    7.4661   21.8682 C   0  0  0  0  0  0  0  0  0  0  0  0
    7.7991    9.9832   21.7907 N   0  0  0  0  0  0  0  0  0  0  0  0
    9.5927    5.6289   21.7065 C   0  0  0  0  0  0  0  0  0  0  0  0
    8.6337    7.5529   23.2075 C   0  0  0  0  0  0  0  0  0  0  0  0
   13.2450    9.6582   20.7349 C   0  0  0  0  0  0  0  0  0  0  0  0
   10.2696    4.3589   23.3021 O   0  0  0  0  0  0  0  0  0  0  0  0
    3.9867    6.9630   20.8239 C   0  0  0  0  0  0  0  0  0  0  0  0
    3.1958   10.2634   19.6545 O   0  0  0  0  0  0  0  0  0  0  0  0
    5.4545    7.2231   21.1310 C   0  0  0  0  0  0  0  0  0  0  0  0
    7.1174   10.8556   22.4003 C   0  0  0  0  0  0  0  0  0  0  0  0
    3.9980    9.4403   20.0771 He  0  0  0  0  0  0  0  0  0  0  0  0
  1  4  2  0
  1  8  4  0
  1  9  2  0
  1 11  4  0
  1 21  4  0
  2  9  1  0
  2 20  3  0
  2 22  3  0
  2 24  4  0
  3 11  4  0
  3 13  1  0
  3 22  4  0
  4  9  3  0
  4 12  4  0
  4 20  4  0
  4 23  3  0
  5  8  4  0
  5 22  4  0
  6 16  4  0
  6 17  2  0
  7 11  4  0
  7 14  4  0
  7 15  1  0
  7 17  3  0
  7 21  1  0
  7 26  4  0
  7 27  3  0
  8 17  1  0
 10 17  1  0
 10 19  1  0
 10 21  4  0
 10 24  1  0
 12 20  1  0
 12 21  4  0
 13 23  2  0
 15 18  1  0
 15 19  1  0
 16 18  4  0
 18 21  4  0
 19 27  1  0
 24 26  4  0
M  END
$$$$

 Created by Python create_sdf_string function

 28 30  0  0  0  0  0  0  0  0999 V2000
   11.4981   10.9568   18.8449 C   0  0  0  0  0  0  0  0  0  0  0  0
    3.3366    8.0157   20.2989 C   0  0  0  0  0  0  0  0  0  0  0  0
   13.6797   10.1691   19.4306 C   0  0  0  0  0  0  0  0  0  0  0  0
    9.7062    5.4532   22.8907 C   0  0  0  0  0  0  0  0  0  0  0  0
   11.9098    9.9903   21.0176 C   0  0  0  0  0  0  0  0  0  0  0  0
    9.0234   11.6298   19.7036 O   0  0  0  0  0  0  0  0  0  0  0  0
    5.9958    8.4210   21.0790 C   0  0  0  0  0  0  0  0  0  0  0  0
   11.0801   10.6012   20.1114 C   0  0  0  0  0  0  0  0  0  0  0  0
    2.0544    7.8687   19.9205 O   0  0  0  0  0  0  0  0  0  0  0  0
    9.1411   10.3215   21.5496 N   0  0  0  0  0  0  0  0  0  0  0  0
    3.9245    9.2907   20.1749 C   0  0  0  0  0  0  0  0  0  0  0  0
   12.8306   10.7214   18.5183 C   0  0  0  0  0  0  0  0  0  0  0  0
    9.2793    6.4222   23.7588 C   0  0  0  0  0  0  0  0  0  0  0  0
   14.9474   10.0574   19.0927 O   0  0  0  0  0  0  0  0  0  0  0  0
    5.2369    9.4418   20.5907 C   0  0  0  0  0  0  0  0  0  0  0  0
    7.4264    8.6451   21.4027 C   0  0  0  0  0  0  0  0  0  0  0  0
    8.7171    6.6678   21.0412 C   0  0  0  0  0  0  0  0  0  0  0  0
    9.6981   10.8803   20.4447 C   0  0  0  0  0  0  0  0  0  0  0  0
    8.2429    7.5728   21.9375 C   0  0  0  0  0  0  0  0  0  0  0  0
    7.7992    9.9891   21.6870 N   0  0  0  0  0  0  0  0  0  0  0  0
    9.4933    5.5695   21.5713 C   0  0  0  0  0  0  0  0  0  0  0  0
    8.5257    7.5148   23.2453 C   0  0  0  0  0  0  0  0  0  0  0  0
   13.2391    9.7684   20.6727 C   0  0  0  0  0  0  0  0  0  0  0  0
   10.3196    4.3630   23.3369 O   0  0  0  0  0  0  0  0  0  0  0  0
    4.0873    6.9737   20.7938 C   0  0  0  0  0  0  0  0  0  0  0  0
    3.1864   10.2324   19.6458 O   0  0  0  0  0  0  0  0  0  0  0  0
    5.4113    7.1969   21.1749 C   0  0  0  0  0  0  0  0  0  0  0  0
    7.0746   10.8869   22.3902 C   0  0  0  0  0  0  0  0  0  0  0  0
  1  8  4  0
  1 12  4  0
  2  9  1  0
  2 11  4  0
  2 25  4  0
  3 12  4  0
  3 14  1  0
  3 23  4  0
  4 13  4  0
  4 21  4  0
  4 24  1  0
  5  8  4  0
  5 23  4  0
  6 18  2  0
  7 15  4  0
  7 16  1  0
  7 27  4  0
  8 18  1  0
 10 18  1  0
 10 20  1  0
 11 15  4  0
 11 26  1  0
 13 22  4  0
 16 19  1  0
 16 20  1  0
 17 19  4  0
 17 21  4  0
 19 22  4  0
 20 28  1  0
 25 27  4  0
M  END
$$$$

 Created by Python create_sdf_string function

 28 35  0  0  0  0  0  0  0  0999 V2000
   11.4727   10.9409   18.7710 C   0  0  0  0  0  0  0  0  0  0  0  0
    3.1504    7.9741   20.2791 C   0  0  0  0  0  0  0  0  0  0  0  0
   13.6866   10.2032   19.4471 C   0  0  0  0  0  0  0  0  0  0  0  0
    9.7915    5.5605   22.9371 C   0  0  0  0  0  0  0  0  0  0  0  0
   11.9262    9.9475   21.0801 C   0  0  0  0  0  0  0  0  0  0  0  0
    9.0058   11.5138   19.6198 O   0  0  0  0  0  0  0  0  0  0  0  0
    5.9875    8.3425   21.0157 C   0  0  0  0  0  0  0  0  0  0  0  0
   11.0738   10.5739   20.0825 C   0  0  0  0  0  0  0  0  0  0  0  0
    2.0376    7.9408   19.7994 O   0  0  0  0  0  0  0  0  0  0  0  0
    9.1028   10.3401   21.4324 N   0  0  0  0  0  0  0  0  0  0  0  0
    3.9290    9.1462   20.0974 C   0  0  0  0  0  0  0  0  0  0  0  0
   12.7632   10.6287   18.4812 C   0  0  0  0  0  0  0  0  0  0  0  0
    9.3450    6.4342   23.7872 C   0  0  0  0  0  0  0  0  0  0  0  0
   15.0024   10.0605   18.9565 O   0  0  0  0  0  0  0  0  0  0  0  0
    5.1942    9.4295   20.7788 C   0  0  0  0  0  0  0  0  0  0  0  0
    7.3424    8.6225   21.4541 C   0  0  0  0  0  0  0  0  0  0  0  0
    8.7182    6.6182   20.9970 F   0  0  0  0  0  0  0  0  0  0  0  0
    9.7131   10.8408   20.2932 C   0  0  0  0  0  0  0  0  0  0  0  0
    8.3094    7.6214   21.9435 S   0  0  0  0  0  0  0  0  0  0  0  0
    7.6707   10.0059   21.7511 N   0  0  0  0  0  0  0  0  0  0  0  0
    9.4989    5.4981   21.5782 C   0  0  0  0  0  0  0  0  0  0  0  0
    8.5551    7.4652   23.2456 C   0  0  0  0  0  0  0  0  0  0  0  0
   13.1981    9.7244   20.6578 C   0  0  0  0  0  0  0  0  0  0  0  0
    4.0789    6.9748   20.9111 C   0  0  0  0  0  0  0  0  0  0  0  0
    3.0675   10.2095   19.7174 O   0  0  0  0  0  0  0  0  0  0  0  0
    5.4344    7.0883   21.1900 C   0  0  0  0  0  0  0  0  0  0  0  0
    7.0498   10.8845   22.3494 C   0  0  0  0  0  0  0  0  0  0  0  0
   10.4135    4.3807   23.3400 He  0  0  0  0  0  0  0  0  0  0  0  0
  1  8  4  0
  1 12  4  0
  2  9  1  0
  2 11  4  0
  2 24  4  0
  3 12  4  0
  3 14  1  0
  4 13  4  0
  4 21  3  0
  5  8  4  0
  5 19  2  0
  6  7  1  0
  6 18  2  0
  7 12  3  0
  7 15  4  0
  7 16  1  0
  7 26  4  0
  8 18  1  0
  8 24  2  0
  9 12  1  0
 10 18  1  0
 10 20  1  0
 11 15  4  0
 11 17  3  0
 11 25  1  0
 13 22  4  0
 16 19  1  0
 16 20  2  0
 17 19  4  0
 17 21  4  0
 19 22  4  0
 19 24  4  0
 20 27  1  0
 23 27  4  0
 24 26  4  0
M  END
$$$$

 Created by Python create_sdf_string function

 28 30  0  0  0  0  0  0  0  0999 V2000
   11.4916   10.9265   18.7785 C   0  0  0  0  0  0  0  0  0  0  0  0
    3.3165    7.9607   20.3087 C   0  0  0  0  0  0  0  0  0  0  0  0
   13.6776   10.1548   19.3962 C   0  0  0  0  0  0  0  0  0  0  0  0
    9.7626    5.4866   22.8870 C   0  0  0  0  0  0  0  0  0  0  0  0
   11.8884    9.9890   20.9740 C   0  0  0  0  0  0  0  0  0  0  0  0
    9.0236   11.5419   19.6145 O   0  0  0  0  0  0  0  0  0  0  0  0
    5.9892    8.3733   21.1104 C   0  0  0  0  0  0  0  0  0  0  0  0
   11.0575   10.5765   20.0474 C   0  0  0  0  0  0  0  0  0  0  0  0
    2.0709    7.8747   19.8507 O   0  0  0  0  0  0  0  0  0  0  0  0
    9.0922   10.3029   21.4276 N   0  0  0  0  0  0  0  0  0  0  0  0
    3.8981    9.2302   20.1886 C   0  0  0  0  0  0  0  0  0  0  0  0
   12.8141   10.6799   18.4670 C   0  0  0  0  0  0  0  0  0  0  0  0
    9.3226    6.4685   23.7464 C   0  0  0  0  0  0  0  0  0  0  0  0
   14.9562   10.0354   19.0425 O   0  0  0  0  0  0  0  0  0  0  0  0
    5.1977    9.4064   20.6255 C   0  0  0  0  0  0  0  0  0  0  0  0
    7.3644    8.6543   21.4707 C   0  0  0  0  0  0  0  0  0  0  0  0
    8.6860    6.6406   21.0643 C   0  0  0  0  0  0  0  0  0  0  0  0
    9.6726   10.8512   20.3503 C   0  0  0  0  0  0  0  0  0  0  0  0
    8.2147    7.5748   21.9431 C   0  0  0  0  0  0  0  0  0  0  0  0
    7.7793    9.9614   21.6635 N   0  0  0  0  0  0  0  0  0  0  0  0
    9.4894    5.5708   21.5491 C   0  0  0  0  0  0  0  0  0  0  0  0
    8.5475    7.5326   23.2600 C   0  0  0  0  0  0  0  0  0  0  0  0
   13.2210    9.7787   20.6233 C   0  0  0  0  0  0  0  0  0  0  0  0
   10.4395    4.4362   23.3542 O   0  0  0  0  0  0  0  0  0  0  0  0
    4.0766    6.9242   20.8461 C   0  0  0  0  0  0  0  0  0  0  0  0
    3.0943   10.1835   19.6950 O   0  0  0  0  0  0  0  0  0  0  0  0
    5.4116    7.1346   21.1826 C   0  0  0  0  0  0  0  0  0  0  0  0
    7.0392   10.9114   22.3433 C   0  0  0  0  0  0  0  0  0  0  0  0
  1  8  4  0
  1 12  4  0
  2  9  1  0
  2 11  4  0
  2 25  4  0
  3 12  4  0
  3 14  1  0
  3 23  4  0
  4 13  4  0
  4 21  4  0
  4 24  1  0
  5  8  4  0
  5 23  4  0
  6 18  2  0
  7 15  4  0
  7 16  1  0
  7 27  4  0
  8 18  1  0
 10 18  1  0
 10 20  1  0
 11 15  4  0
 11 26  1  0
 13 22  4  0
 16 19  1  0
 16 20  2  0
 17 19  4  0
 17 21  4  0
 19 22  4  0
 20 28  1  0
 25 27  4  0
M  END
$$$$

 Created by Python create_sdf_string function

 28 33  0  0  0  0  0  0  0  0999 V2000
   11.4617   11.0947   18.8093 C   0  0  0  0  0  0  0  0  0  0  0  0
    3.3217    7.8853   20.4198 N   0  0  0  0  0  0  0  0  0  0  0  0
   13.6317   10.2474   19.5355 C   0  0  0  0  0  0  0  0  0  0  0  0
    9.7592    5.4676   22.8501 C   0  0  0  0  0  0  0  0  0  0  0  0
   11.9312   10.0266   20.9244 N   0  0  0  0  0  0  0  0  0  0  0  0
    8.9278   11.5171   19.5257 O   0  0  0  0  0  0  0  0  0  0  0  0
    5.9570    8.3710   21.0586 C   0  0  0  0  0  0  0  0  0  0  0  0
   11.0685   10.5953   20.0535 C   0  0  0  0  0  0  0  0  0  0  0  0
    2.0729    7.8417   19.8826 O   0  0  0  0  0  0  0  0  0  0  0  0
    9.1400   10.2093   21.3895 N   0  0  0  0  0  0  0  0  0  0  0  0
    3.8191    9.2767   20.1689 C   0  0  0  0  0  0  0  0  0  0  0  0
   12.8891   10.6288   18.5024 C   0  0  0  0  0  0  0  0  0  0  0  0
    9.3341    6.4957   23.7867 C   0  0  0  0  0  0  0  0  0  0  0  0
   14.9593    9.9870   19.0568 O   0  0  0  0  0  0  0  0  0  0  0  0
    5.2144    9.4435   20.6875 C   0  0  0  0  0  0  0  0  0  0  0  0
    7.2178    8.6745   21.5128 C   0  0  0  0  0  0  0  0  0  0  0  0
    8.7191    6.6366   21.0638 C   0  0  0  0  0  0  0  0  0  0  0  0
    9.7383   10.8862   20.4272 C   0  0  0  0  0  0  0  0  0  0  0  0
    8.2476    7.5927   21.8363 C   0  0  0  0  0  0  0  0  0  0  0  0
    7.8615    9.9912   21.6710 N   0  0  0  0  0  0  0  0  0  0  0  0
    9.4817    5.5503   21.5957 C   0  0  0  0  0  0  0  0  0  0  0  0
    8.5663    7.4600   23.1863 C   0  0  0  0  0  0  0  0  0  0  0  0
    4.0948    6.9884   20.7941 C   0  0  0  0  0  0  0  0  0  0  0  0
    2.9888   10.1451   19.7182 O   0  0  0  0  0  0  0  0  0  0  0  0
    5.3565    7.0815   21.1158 C   0  0  0  0  0  0  0  0  0  0  0  0
    7.0945   10.9520   22.3545 C   0  0  0  0  0  0  0  0  0  0  0  0
   13.2150    9.7374   20.6541 He  0  0  0  0  0  0  0  0  0  0  0  0
   10.4677    4.4612   23.4058 He  0  0  0  0  0  0  0  0  0  0  0  0
  1  8  4  0
  1 12  4  0
  2  4  3  0
  2  9  1  0
  2 11  4  0
  2 23  4  0
  3 12  1  0
  3 14  1  0
  4 13  4  0
  4 21  4  0
  4 24  1  0
  5  8  4  0
  6 18  2  0
  7 15  4  0
  7 16  1  0
  7 25  3  0
  8 18  1  0
  9 25  3  0
 10 18  1  0
 10 20  1  0
 11 15  4  0
 11 24  1  0
 11 25  3  0
 13 22  1  0
 15 18  4  0
 16 17  1  0
 16 19  1  0
 16 20  2  0
 17 19  4  0
 17 21  4  0
 19 22  4  0
 20 26  1  0
 23 25  4  0
M  END
$$$$

 Created by Python create_sdf_string function

 28 30  0  0  0  0  0  0  0  0999 V2000
   11.5249   11.0394   18.7877 C   0  0  0  0  0  0  0  0  0  0  0  0
    3.3366    7.9554   20.3319 C   0  0  0  0  0  0  0  0  0  0  0  0
   13.6558   10.1749   19.4332 C   0  0  0  0  0  0  0  0  0  0  0  0
    9.7637    5.4990   22.8816 C   0  0  0  0  0  0  0  0  0  0  0  0
   11.8695   10.0242   20.9530 N   0  0  0  0  0  0  0  0  0  0  0  0
    8.9772   11.5356   19.6034 O   0  0  0  0  0  0  0  0  0  0  0  0
    5.9676    8.3734   21.1030 C   0  0  0  0  0  0  0  0  0  0  0  0
   11.0685   10.6303   20.0549 C   0  0  0  0  0  0  0  0  0  0  0  0
    2.0892    7.8145   19.9284 O   0  0  0  0  0  0  0  0  0  0  0  0
    9.1265   10.2335   21.3981 N   0  0  0  0  0  0  0  0  0  0  0  0
    3.8632    9.2423   20.2311 C   0  0  0  0  0  0  0  0  0  0  0  0
   12.8423   10.7509   18.4949 C   0  0  0  0  0  0  0  0  0  0  0  0
    9.3370    6.4628   23.7482 C   0  0  0  0  0  0  0  0  0  0  0  0
   14.9247    9.9920   19.1334 O   0  0  0  0  0  0  0  0  0  0  0  0
    5.1830    9.4187   20.6557 C   0  0  0  0  0  0  0  0  0  0  0  0
    7.3558    8.6706   21.4786 C   0  0  0  0  0  0  0  0  0  0  0  0
    8.6743    6.6415   21.0633 C   0  0  0  0  0  0  0  0  0  0  0  0
    9.6531   10.8424   20.3554 C   0  0  0  0  0  0  0  0  0  0  0  0
    8.2026    7.5913   21.9351 C   0  0  0  0  0  0  0  0  0  0  0  0
    7.8107    9.9636   21.6231 N   0  0  0  0  0  0  0  0  0  0  0  0
    9.4788    5.5746   21.5461 C   0  0  0  0  0  0  0  0  0  0  0  0
    8.5489    7.5434   23.2560 C   0  0  0  0  0  0  0  0  0  0  0  0
   13.1812    9.7889   20.6582 C   0  0  0  0  0  0  0  0  0  0  0  0
   10.4647    4.4665   23.3652 O   0  0  0  0  0  0  0  0  0  0  0  0
    4.0759    6.9159   20.7860 C   0  0  0  0  0  0  0  0  0  0  0  0
    3.0332   10.1359   19.7376 O   0  0  0  0  0  0  0  0  0  0  0  0
    5.3974    7.1125   21.1391 C   0  0  0  0  0  0  0  0  0  0  0  0
    7.0991   10.9597   22.3180 C   0  0  0  0  0  0  0  0  0  0  0  0
  1  8  4  0
  1 12  4  0
  2  9  1  0
  2 11  4  0
  2 25  4  0
  3 12  4  0
  3 14  1  0
  3 23  4  0
  4 13  4  0
  4 21  4  0
  4 24  1  0
  5  8  4  0
  5 23  4  0
  6 18  2  0
  7 15  4  0
  7 16  1  0
  7 27  4  0
  8 18  1  0
 10 18  1  0
 10 20  1  0
 11 15  4  0
 11 26  1  0
 13 22  4  0
 16 19  1  0
 16 20  2  0
 17 19  4  0
 17 21  4  0
 19 22  4  0
 20 28  1  0
 25 27  4  0
M  END
$$$$

 Created by Python create_sdf_string function

 28 39  0  0  0  0  0  0  0  0999 V2000
   11.5582   11.0610   18.7914 C   0  0  0  0  0  0  0  0  0  0  0  0
    3.3584    8.0865   20.3247 C   0  0  0  0  0  0  0  0  0  0  0  0
   13.6099   10.3261   19.3946 C   0  0  0  0  0  0  0  0  0  0  0  0
    9.7454    5.5550   22.8395 C   0  0  0  0  0  0  0  0  0  0  0  0
   11.8660   10.0326   20.9324 N   0  0  0  0  0  0  0  0  0  0  0  0
    8.9613   11.6331   19.6154 O   0  0  0  0  0  0  0  0  0  0  0  0
    5.9747    8.4266   21.0614 C   0  0  0  0  0  0  0  0  0  0  0  0
    2.1751    7.9325   19.9002 O   0  0  0  0  0  0  0  0  0  0  0  0
    9.1502   10.3041   21.4446 N   0  0  0  0  0  0  0  0  0  0  0  0
    3.7694    9.1830   20.2723 C   0  0  0  0  0  0  0  0  0  0  0  0
   12.7847   10.8654   18.4587 C   0  0  0  0  0  0  0  0  0  0  0  0
    9.3022    6.5234   23.6402 C   0  0  0  0  0  0  0  0  0  0  0  0
   14.9174    9.9725   19.0567 O   0  0  0  0  0  0  0  0  0  0  0  0
    5.1095    9.3494   20.6083 C   0  0  0  0  0  0  0  0  0  0  0  0
    7.3431    8.8045   21.5321 C   0  0  0  0  0  0  0  0  0  0  0  0
    8.7337    6.5929   21.1333 C   0  0  0  0  0  0  0  0  0  0  0  0
    9.6738   10.8823   20.3522 C   0  0  0  0  0  0  0  0  0  0  0  0
    8.1998    7.5168   22.0278 C   0  0  0  0  0  0  0  0  0  0  0  0
    7.7931    9.9719   21.5803 N   0  0  0  0  0  0  0  0  0  0  0  0
    9.3476    5.6264   21.5995 C   0  0  0  0  0  0  0  0  0  0  0  0
    8.5626    7.5974   23.3233 C   0  0  0  0  0  0  0  0  0  0  0  0
   13.3054    9.8660   20.7378 C   0  0  0  0  0  0  0  0  0  0  0  0
   10.3555    4.4342   23.3917 O   0  0  0  0  0  0  0  0  0  0  0  0
    4.0598    7.0264   20.9686 C   0  0  0  0  0  0  0  0  0  0  0  0
    3.0547   10.0849   19.7119 O   0  0  0  0  0  0  0  0  0  0  0  0
    5.4816    7.1689   21.0836 C   0  0  0  0  0  0  0  0  0  0  0  0
    7.0599   10.9812   22.3138 C   0  0  0  0  0  0  0  0  0  0  0  0
   11.0286   10.6975   20.0639 He  0  0  0  0  0  0  0  0  0  0  0  0
  1 11  4  0
  2  8  1  0
  2 10  4  0
  2 18  2  0
  2 24  4  0
  3 11  4  0
  3 13  1  0
  3 16  1  0
  3 22  4  0
  4 12  4  0
  4 13  1  0
  4 20  4  0
  4 23  1  0
  5 22  4  0
  6 17  2  0
  6 25  1  0
  7 11  3  0
  7 14  4  0
  7 15  1  0
  7 26  4  0
  8 21  3  0
  9 17  1  0
  9 19  1  0
 10 14  4  0
 10 25  1  0
 12 19  3  0
 12 21  4  0
 13 16  2  0
 14 23  2  0
 15 19  2  0
 16 18  4  0
 16 20  4  0
 16 24  3  0
 18 21  4  0
 18 26  4  0
 19 25  3  0
 19 27  1  0
 24 26  4  0
 25 26  2  0
M  END
$$$$

 Created by Python create_sdf_string function

 28 30  0  0  0  0  0  0  0  0999 V2000
   11.5001   11.0989   18.7759 C   0  0  0  0  0  0  0  0  0  0  0  0
    3.3416    7.9724   20.3665 C   0  0  0  0  0  0  0  0  0  0  0  0
   13.6511   10.2728   19.3936 C   0  0  0  0  0  0  0  0  0  0  0  0
    9.7103    5.5377   22.8930 C   0  0  0  0  0  0  0  0  0  0  0  0
   11.8562   10.0855   20.9408 N   0  0  0  0  0  0  0  0  0  0  0  0
    8.9969   11.6272   19.6527 O   0  0  0  0  0  0  0  0  0  0  0  0
    5.9752    8.4378   21.1088 C   0  0  0  0  0  0  0  0  0  0  0  0
   11.0561   10.6786   20.0264 C   0  0  0  0  0  0  0  0  0  0  0  0
    2.1190    7.8310   19.9436 O   0  0  0  0  0  0  0  0  0  0  0  0
    9.1272   10.2920   21.4077 N   0  0  0  0  0  0  0  0  0  0  0  0
    3.8760    9.2505   20.2380 C   0  0  0  0  0  0  0  0  0  0  0  0
   12.8179   10.8678   18.4813 C   0  0  0  0  0  0  0  0  0  0  0  0
    9.3297    6.5190   23.7263 C   0  0  0  0  0  0  0  0  0  0  0  0
   14.8878   10.0261   19.0732 O   0  0  0  0  0  0  0  0  0  0  0  0
    5.1816    9.4444   20.6276 C   0  0  0  0  0  0  0  0  0  0  0  0
    7.3532    8.7206   21.5058 C   0  0  0  0  0  0  0  0  0  0  0  0
    8.6155    6.6800   21.0922 C   0  0  0  0  0  0  0  0  0  0  0  0
    9.6612   10.9073   20.3545 C   0  0  0  0  0  0  0  0  0  0  0  0
    8.1802    7.6168   21.9714 C   0  0  0  0  0  0  0  0  0  0  0  0
    7.8073   10.0121   21.5934 N   0  0  0  0  0  0  0  0  0  0  0  0
    9.4097    5.5954   21.5668 C   0  0  0  0  0  0  0  0  0  0  0  0
    8.5384    7.5978   23.2580 C   0  0  0  0  0  0  0  0  0  0  0  0
   13.1982    9.8944   20.6450 C   0  0  0  0  0  0  0  0  0  0  0  0
   10.3687    4.4930   23.3592 O   0  0  0  0  0  0  0  0  0  0  0  0
    4.1113    6.9476   20.8661 C   0  0  0  0  0  0  0  0  0  0  0  0
    3.0619   10.1409   19.7332 O   0  0  0  0  0  0  0  0  0  0  0  0
    5.4238    7.1853   21.1776 C   0  0  0  0  0  0  0  0  0  0  0  0
    7.0753   11.0088   22.2865 C   0  0  0  0  0  0  0  0  0  0  0  0
  1  8  4  0
  1 12  4  0
  2  9  1  0
  2 11  4  0
  2 25  4  0
  3 12  4  0
  3 14  1  0
  3 23  4  0
  4 13  4  0
  4 21  4  0
  4 24  1  0
  5  8  4  0
  5 23  4  0
  6 18  2  0
  7 15  4  0
  7 16  1  0
  7 27  4  0
  8 18  1  0
 10 18  1  0
 10 20  1  0
 11 15  4  0
 11 26  1  0
 13 22  4  0
 16 19  1  0
 16 20  2  0
 17 19  4  0
 17 21  4  0
 19 22  4  0
 20 28  1  0
 25 27  4  0
M  END
$$$$

 Created by Python create_sdf_string function

 28 34  0  0  0  0  0  0  0  0999 V2000
   11.5610   11.1589   18.7190 C   0  0  0  0  0  0  0  0  0  0  0  0
    3.3768    7.9194   20.4473 C   0  0  0  0  0  0  0  0  0  0  0  0
   13.6207   10.2567   19.4529 C   0  0  0  0  0  0  0  0  0  0  0  0
    9.7516    5.5870   22.8558 C   0  0  0  0  0  0  0  0  0  0  0  0
   11.9258   10.1964   20.9061 N   0  0  0  0  0  0  0  0  0  0  0  0
    8.9751   11.6627   19.6535 O   0  0  0  0  0  0  0  0  0  0  0  0
    5.9121    8.4738   21.1161 C   0  0  0  0  0  0  0  0  0  0  0  0
   11.0433   10.6919   20.0208 C   0  0  0  0  0  0  0  0  0  0  0  0
    2.1198    7.8833   19.9187 O   0  0  0  0  0  0  0  0  0  0  0  0
    9.1465   10.3159   21.4540 N   0  0  0  0  0  0  0  0  0  0  0  0
    3.7999    9.3143   20.3592 C   0  0  0  0  0  0  0  0  0  0  0  0
   12.8820   10.8986   18.5705 C   0  0  0  0  0  0  0  0  0  0  0  0
    9.3280    6.4981   23.6563 C   0  0  0  0  0  0  0  0  0  0  0  0
   14.9148   10.1151   19.0946 O   0  0  0  0  0  0  0  0  0  0  0  0
    5.1867    9.3996   20.5253 C   0  0  0  0  0  0  0  0  0  0  0  0
    7.4140    8.6772   21.5145 C   0  0  0  0  0  0  0  0  0  0  0  0
    8.5366    6.6008   21.0940 C   0  0  0  0  0  0  0  0  0  0  0  0
    9.7192   10.9357   20.3868 C   0  0  0  0  0  0  0  0  0  0  0  0
    8.1890    7.6481   21.9583 C   0  0  0  0  0  0  0  0  0  0  0  0
    7.8024   10.0253   21.6103 N   0  0  0  0  0  0  0  0  0  0  0  0
    9.3096    5.4722   21.6983 C   0  0  0  0  0  0  0  0  0  0  0  0
    8.5018    7.5268   23.2310 C   0  0  0  0  0  0  0  0  0  0  0  0
   13.2016   10.0284   20.5981 C   0  0  0  0  0  0  0  0  0  0  0  0
   10.2762    4.5741   23.3718 O   0  0  0  0  0  0  0  0  0  0  0  0
    3.9291    6.9676   20.9130 C   0  0  0  0  0  0  0  0  0  0  0  0
    2.9093   10.1018   19.6685 O   0  0  0  0  0  0  0  0  0  0  0  0
    5.5200    7.1608   21.1680 C   0  0  0  0  0  0  0  0  0  0  0  0
    7.0676   10.9865   22.3460 C   0  0  0  0  0  0  0  0  0  0  0  0
  1  8  4  0
  1 12  4  0
  1 22  3  0
  2  9  1  0
  2 10  4  0
  2 11  4  0
  2 18  4  0
  2 25  4  0
  3 12  4  0
  3 14  1  0
  3 23  4  0
  4 13  2  0
  4 21  4  0
  4 24  1  0
  5  8  4  0
  5 23  4  0
  6 18  2  0
  7 15  4  0
  7 16  1  0
  7 27  4  0
  8 18  1  0
 10 18  1  0
 10 20  1  0
 11 15  4  0
 11 26  1  0
 12 27  2  0
 13 22  4  0
 16 19  1  0
 16 20  2  0
 17 19  4  0
 17 21  4  0
 20 28  1  0
 21 27  4  0
 25 27  4  0
M  END
$$$$

 Created by Python create_sdf_string function

 28 30  0  0  0  0  0  0  0  0999 V2000
   11.5173   11.1501   18.7536 C   0  0  0  0  0  0  0  0  0  0  0  0
    3.3221    7.9782   20.4061 C   0  0  0  0  0  0  0  0  0  0  0  0
   13.6481   10.3234   19.4195 C   0  0  0  0  0  0  0  0  0  0  0  0
    9.6671    5.5501   22.8862 C   0  0  0  0  0  0  0  0  0  0  0  0
   11.8753   10.1754   20.9318 N   0  0  0  0  0  0  0  0  0  0  0  0
    9.0042   11.6591   19.6848 O   0  0  0  0  0  0  0  0  0  0  0  0
    5.9689    8.4370   21.0986 C   0  0  0  0  0  0  0  0  0  0  0  0
   11.0740   10.7430   20.0221 C   0  0  0  0  0  0  0  0  0  0  0  0
    2.0735    7.8312   19.9690 O   0  0  0  0  0  0  0  0  0  0  0  0
    9.1389   10.3115   21.4081 N   0  0  0  0  0  0  0  0  0  0  0  0
    3.8496    9.2560   20.2649 C   0  0  0  0  0  0  0  0  0  0  0  0
   12.8497   10.9111   18.4801 C   0  0  0  0  0  0  0  0  0  0  0  0
    9.3190    6.5568   23.7122 C   0  0  0  0  0  0  0  0  0  0  0  0
   14.8968   10.0976   19.1201 O   0  0  0  0  0  0  0  0  0  0  0  0
    5.1793    9.4557   20.6268 C   0  0  0  0  0  0  0  0  0  0  0  0
    7.3691    8.7297   21.4787 C   0  0  0  0  0  0  0  0  0  0  0  0
    8.5460    6.6207   21.0960 C   0  0  0  0  0  0  0  0  0  0  0  0
    9.6717   10.9329   20.3603 C   0  0  0  0  0  0  0  0  0  0  0  0
    8.1511    7.6175   21.9470 C   0  0  0  0  0  0  0  0  0  0  0  0
    7.8087   10.0215   21.5949 N   0  0  0  0  0  0  0  0  0  0  0  0
    9.3212    5.5348   21.5723 C   0  0  0  0  0  0  0  0  0  0  0  0
    8.5352    7.6045   23.2321 C   0  0  0  0  0  0  0  0  0  0  0  0
   13.1809    9.9742   20.6333 C   0  0  0  0  0  0  0  0  0  0  0  0
   10.3589    4.5509   23.3585 O   0  0  0  0  0  0  0  0  0  0  0  0
    4.0748    6.9346   20.9006 C   0  0  0  0  0  0  0  0  0  0  0  0
    2.9493   10.1265   19.7190 O   0  0  0  0  0  0  0  0  0  0  0  0
    5.4127    7.1817   21.2113 C   0  0  0  0  0  0  0  0  0  0  0  0
    7.0752   11.0023   22.3108 C   0  0  0  0  0  0  0  0  0  0  0  0
  1  8  4  0
  1 12  4  0
  2  9  1  0
  2 11  4  0
  2 25  4  0
  3 12  4  0
  3 14  1  0
  3 23  4  0
  4 13  4  0
  4 21  4  0
  4 24  1  0
  5  8  4  0
  5 23  4  0
  6 18  2  0
  7 15  4  0
  7 16  1  0
  7 27  4  0
  8 18  1  0
 10 18  1  0
 10 20  1  0
 11 15  4  0
 11 26  1  0
 13 22  4  0
 16 19  1  0
 16 20  2  0
 17 19  4  0
 17 21  4  0
 19 22  4  0
 20 28  1  0
 25 27  4  0
M  END
$$$$

 Created by Python create_sdf_string function

 28 38  0  0  0  0  0  0  0  0999 V2000
   11.5559   11.1412   18.7949 C   0  0  0  0  0  0  0  0  0  0  0  0
    3.3962    7.9766   20.4089 C   0  0  0  0  0  0  0  0  0  0  0  0
   13.6876   10.1929   19.3825 C   0  0  0  0  0  0  0  0  0  0  0  0
    9.6211    5.6050   22.8471 C   0  0  0  0  0  0  0  0  0  0  0  0
   11.8601   10.1623   20.9673 N   0  0  0  0  0  0  0  0  0  0  0  0
    9.0415   11.7174   19.6971 O   0  0  0  0  0  0  0  0  0  0  0  0
    6.0082    8.4170   21.0929 C   0  0  0  0  0  0  0  0  0  0  0  0
   11.0661   10.8080   20.0854 C   0  0  0  0  0  0  0  0  0  0  0  0
    2.0628    7.8805   19.9372 O   0  0  0  0  0  0  0  0  0  0  0  0
    9.1195   10.3826   21.3883 N   0  0  0  0  0  0  0  0  0  0  0  0
    3.8225    9.2608   20.2578 C   0  0  0  0  0  0  0  0  0  0  0  0
   12.8374   10.9368   18.4570 C   0  0  0  0  0  0  0  0  0  0  0  0
    9.3247    6.6639   23.7129 C   0  0  0  0  0  0  0  0  0  0  0  0
   14.9099   10.1006   19.0121 O   0  0  0  0  0  0  0  0  0  0  0  0
    5.1528    9.5522   20.6557 C   0  0  0  0  0  0  0  0  0  0  0  0
    7.3092    8.7394   21.3662 C   0  0  0  0  0  0  0  0  0  0  0  0
    8.5359    6.6811   21.0759 C   0  0  0  0  0  0  0  0  0  0  0  0
    9.7122   10.8615   20.3020 C   0  0  0  0  0  0  0  0  0  0  0  0
    8.2135    7.5877   21.9784 C   0  0  0  0  0  0  0  0  0  0  0  0
    7.8512   10.0115   21.5379 N   0  0  0  0  0  0  0  0  0  0  0  0
    9.2910    5.6385   21.5728 C   0  0  0  0  0  0  0  0  0  0  0  0
    8.5255    7.5302   23.1334 C   0  0  0  0  0  0  0  0  0  0  0  0
   13.2180    9.9379   20.6635 C   0  0  0  0  0  0  0  0  0  0  0  0
   10.2381    4.5511   23.3154 O   0  0  0  0  0  0  0  0  0  0  0  0
    4.0652    6.9107   20.8593 C   0  0  0  0  0  0  0  0  0  0  0  0
    2.9154   10.1672   19.6791 O   0  0  0  0  0  0  0  0  0  0  0  0
    5.3563    7.1237   21.2079 C   0  0  0  0  0  0  0  0  0  0  0  0
    7.0243   10.9190   22.3509 C   0  0  0  0  0  0  0  0  0  0  0  0
  1  8  4  0
  1 12  4  0
  2  9  1  0
  2 11  4  0
  2 25  4  0
  3 12  4  0
  3 13  1  0
  3 14  1  0
  3 18  2  0
  3 23  4  0
  4 13  4  0
  4 24  1  0
  5  7  4  0
  5  8  4  0
  5 23  4  0
  6 18  2  0
  7 15  4  0
  7 16  1  0
  7 19  1  0
  7 27  4  0
  8 14  1  0
  8 18  1  0
 10 18  1  0
 10 20  1  0
 11 15  4  0
 11 26  1  0
 13 22  4  0
 15 18  1  0
 15 23  4  0
 16 19  1  0
 16 20  2  0
 16 21  4  0
 16 26  2  0
 17 19  4  0
 17 21  1  0
 19 22  4  0
 20 28  1  0
 25 27  4  0
M  END
$$$$

 Created by Python create_sdf_string function

 28 30  0  0  0  0  0  0  0  0999 V2000
   11.5325   11.1749   18.7763 C   0  0  0  0  0  0  0  0  0  0  0  0
    3.3183    7.9811   20.3667 C   0  0  0  0  0  0  0  0  0  0  0  0
   13.6620   10.2821   19.3782 C   0  0  0  0  0  0  0  0  0  0  0  0
    9.6413    5.5832   22.8550 C   0  0  0  0  0  0  0  0  0  0  0  0
   11.8742   10.1685   20.9414 N   0  0  0  0  0  0  0  0  0  0  0  0
    9.0386   11.7121   19.6975 O   0  0  0  0  0  0  0  0  0  0  0  0
    5.9459    8.4464   21.0931 C   0  0  0  0  0  0  0  0  0  0  0  0
   11.0736   10.7544   20.0276 C   0  0  0  0  0  0  0  0  0  0  0  0
    2.0594    7.8236   19.9604 O   0  0  0  0  0  0  0  0  0  0  0  0
    9.1085   10.3322   21.3619 N   0  0  0  0  0  0  0  0  0  0  0  0
    3.8375    9.2623   20.2517 C   0  0  0  0  0  0  0  0  0  0  0  0
   12.8495   10.9162   18.4557 C   0  0  0  0  0  0  0  0  0  0  0  0
    9.2969    6.6190   23.6953 C   0  0  0  0  0  0  0  0  0  0  0  0
   14.8975   10.0577   19.0466 O   0  0  0  0  0  0  0  0  0  0  0  0
    5.1521    9.4862   20.6489 C   0  0  0  0  0  0  0  0  0  0  0  0
    7.3475    8.7497   21.4171 C   0  0  0  0  0  0  0  0  0  0  0  0
    8.5417    6.6645   21.0176 C   0  0  0  0  0  0  0  0  0  0  0  0
    9.6803   10.9802   20.3694 C   0  0  0  0  0  0  0  0  0  0  0  0
    8.1335    7.6627   21.8853 C   0  0  0  0  0  0  0  0  0  0  0  0
    7.7977   10.0463   21.5464 N   0  0  0  0  0  0  0  0  0  0  0  0
    9.3187    5.5881   21.5377 C   0  0  0  0  0  0  0  0  0  0  0  0
    8.5217    7.6658   23.1679 C   0  0  0  0  0  0  0  0  0  0  0  0
   13.1808    9.9350   20.6243 C   0  0  0  0  0  0  0  0  0  0  0  0
   10.2720    4.5560   23.3318 O   0  0  0  0  0  0  0  0  0  0  0  0
    4.0853    6.9347   20.8531 C   0  0  0  0  0  0  0  0  0  0  0  0
    2.9670   10.1657   19.7147 O   0  0  0  0  0  0  0  0  0  0  0  0
    5.4096    7.1805   21.1947 C   0  0  0  0  0  0  0  0  0  0  0  0
    7.0464   10.9513   22.3217 C   0  0  0  0  0  0  0  0  0  0  0  0
  1  8  4  0
  1 12  4  0
  2  9  1  0
  2 11  4  0
  2 25  4  0
  3 12  4  0
  3 14  1  0
  3 23  4  0
  4 13  4  0
  4 21  4  0
  4 24  1  0
  5  8  4  0
  5 23  4  0
  6 18  2  0
  7 15  4  0
  7 16  1  0
  7 27  4  0
  8 18  1  0
 10 18  1  0
 10 20  1  0
 11 15  4  0
 11 26  1  0
 13 22  4  0
 16 19  1  0
 16 20  2  0
 17 19  4  0
 17 21  4  0
 19 22  4  0
 20 28  1  0
 25 27  4  0
M  END
$$$$

 Created by Python create_sdf_string function

 28 36  0  0  0  0  0  0  0  0999 V2000
   11.5606   11.1850   18.8953 C   0  0  0  0  0  0  0  0  0  0  0  0
    3.3544    8.0593   20.3651 C   0  0  0  0  0  0  0  0  0  0  0  0
   13.6481   10.2259   19.4763 C   0  0  0  0  0  0  0  0  0  0  0  0
    9.6298    5.6566   22.8488 C   0  0  0  0  0  0  0  0  0  0  0  0
   11.9478   10.1381   21.0214 N   0  0  0  0  0  0  0  0  0  0  0  0
    9.0336   11.7440   19.6725 O   0  0  0  0  0  0  0  0  0  0  0  0
    5.9833    8.4209   21.0848 C   0  0  0  0  0  0  0  0  0  0  0  0
   11.0789   10.6886   19.9468 C   0  0  0  0  0  0  0  0  0  0  0  0
    2.0736    7.8824   19.9858 O   0  0  0  0  0  0  0  0  0  0  0  0
    9.2057   10.3316   21.3794 N   0  0  0  0  0  0  0  0  0  0  0  0
    3.8425    9.2737   20.3176 C   0  0  0  0  0  0  0  0  0  0  0  0
   12.8360   10.8878   18.4436 C   0  0  0  0  0  0  0  0  0  0  0  0
    9.2999    6.5923   23.6994 C   0  0  0  0  0  0  0  0  0  0  0  0
   14.9388    9.9777   19.0572 O   0  0  0  0  0  0  0  0  0  0  0  0
    5.1769    9.5024   20.6445 C   0  0  0  0  0  0  0  0  0  0  0  0
    7.4141    8.7844   21.4274 C   0  0  0  0  0  0  0  0  0  0  0  0
    8.5716    6.6161   20.9984 C   0  0  0  0  0  0  0  0  0  0  0  0
    9.6439   10.9556   20.3520 C   0  0  0  0  0  0  0  0  0  0  0  0
    8.1938    7.6867   21.8591 C   0  0  0  0  0  0  0  0  0  0  0  0
    7.8082   10.0195   21.5684 N   0  0  0  0  0  0  0  0  0  0  0  0
    9.3333    5.5966   21.5581 C   0  0  0  0  0  0  0  0  0  0  0  0
    8.5007    7.7454   23.1956 C   0  0  0  0  0  0  0  0  0  0  0  0
   13.2033    9.9576   20.5874 C   0  0  0  0  0  0  0  0  0  0  0  0
   10.3186    4.5904   23.3025 O   0  0  0  0  0  0  0  0  0  0  0  0
    4.1631    6.9683   20.8997 C   0  0  0  0  0  0  0  0  0  0  0  0
    2.9627   10.2504   19.7178 O   0  0  0  0  0  0  0  0  0  0  0  0
    5.3571    7.0576   21.1974 C   0  0  0  0  0  0  0  0  0  0  0  0
    7.0280   11.0322   22.3088 C   0  0  0  0  0  0  0  0  0  0  0  0
  1  8  4  0
  1 12  4  0
  1 27  1  0
  2  9  1  0
  2 11  4  0
  2 25  4  0
  3 12  4  0
  3 14  1  0
  3 23  4  0
  4 11  3  0
  4 13  4  0
  4 17  2  0
  4 21  4  0
  4 24  1  0
  5  8  4  0
  6 18  2  0
  7 15  4  0
  7 16  1  0
  7 27  4  0
  8 15  1  0
  8 18  1  0
 10 17  2  0
 10 18  1  0
 10 20  1  0
 11 15  4  0
 11 21  4  0
 11 26  1  0
 13 22  4  0
 16 19  1  0
 16 20  2  0
 17 19  4  0
 17 21  4  0
 19 22  4  0
 20 28  1  0
 21 28  2  0
 25 27  4  0
M  END
$$$$

 Created by Python create_sdf_string function

 28 30  0  0  0  0  0  0  0  0999 V2000
   11.5345   11.1697   18.8042 C   0  0  0  0  0  0  0  0  0  0  0  0
    3.3436    8.0131   20.3843 C   0  0  0  0  0  0  0  0  0  0  0  0
   13.6543   10.2636   19.3933 C   0  0  0  0  0  0  0  0  0  0  0  0
    9.6550    5.6091   22.8461 C   0  0  0  0  0  0  0  0  0  0  0  0
   11.8807   10.1382   20.9545 N   0  0  0  0  0  0  0  0  0  0  0  0
    9.0472   11.7267   19.7001 O   0  0  0  0  0  0  0  0  0  0  0  0
    5.9837    8.4513   21.0871 C   0  0  0  0  0  0  0  0  0  0  0  0
   11.0803   10.7479   20.0438 C   0  0  0  0  0  0  0  0  0  0  0  0
    2.0836    7.8622   19.9972 O   0  0  0  0  0  0  0  0  0  0  0  0
    9.1302   10.3304   21.3736 N   0  0  0  0  0  0  0  0  0  0  0  0
    3.8637    9.2951   20.2783 C   0  0  0  0  0  0  0  0  0  0  0  0
   12.8492   10.8986   18.4640 C   0  0  0  0  0  0  0  0  0  0  0  0
    9.2963    6.6208   23.6885 C   0  0  0  0  0  0  0  0  0  0  0  0
   14.8908    9.9919   19.0831 O   0  0  0  0  0  0  0  0  0  0  0  0
    5.1797    9.5007   20.6557 C   0  0  0  0  0  0  0  0  0  0  0  0
    7.3777    8.7775   21.4002 C   0  0  0  0  0  0  0  0  0  0  0  0
    8.5552    6.6722   21.0261 C   0  0  0  0  0  0  0  0  0  0  0  0
    9.6792   10.9634   20.3598 C   0  0  0  0  0  0  0  0  0  0  0  0
    8.1735    7.6727   21.8849 C   0  0  0  0  0  0  0  0  0  0  0  0
    7.8034   10.0698   21.5574 N   0  0  0  0  0  0  0  0  0  0  0  0
    9.3279    5.6082   21.5195 C   0  0  0  0  0  0  0  0  0  0  0  0
    8.5473    7.6926   23.1950 C   0  0  0  0  0  0  0  0  0  0  0  0
   13.1805    9.9224   20.6191 C   0  0  0  0  0  0  0  0  0  0  0  0
   10.3314    4.5872   23.3132 O   0  0  0  0  0  0  0  0  0  0  0  0
    4.1112    6.9550   20.8601 C   0  0  0  0  0  0  0  0  0  0  0  0
    3.0066   10.2273   19.7608 O   0  0  0  0  0  0  0  0  0  0  0  0
    5.4319    7.1690   21.1833 C   0  0  0  0  0  0  0  0  0  0  0  0
    7.0412   11.0419   22.2764 C   0  0  0  0  0  0  0  0  0  0  0  0
  1  8  4  0
  1 12  4  0
  2  9  1  0
  2 11  4  0
  2 25  4  0
  3 12  4  0
  3 14  1  0
  3 23  4  0
  4 13  4  0
  4 21  4  0
  4 24  1  0
  5  8  4  0
  5 23  4  0
  6 18  2  0
  7 15  4  0
  7 16  1  0
  7 27  4  0
  8 18  1  0
 10 18  1  0
 10 20  1  0
 11 15  4  0
 11 26  1  0
 13 22  4  0
 16 19  1  0
 16 20  2  0
 17 19  4  0
 17 21  4  0
 19 22  4  0
 20 28  1  0
 25 27  4  0
M  END
$$$$

 Created by Python create_sdf_string function

 28 31  0  0  0  0  0  0  0  0999 V2000
   11.5097   11.1951   18.8617 C   0  0  0  0  0  0  0  0  0  0  0  0
    3.3497    7.9994   20.4266 C   0  0  0  0  0  0  0  0  0  0  0  0
   13.6035   10.2707   19.3721 C   0  0  0  0  0  0  0  0  0  0  0  0
    9.6819    5.6343   22.8689 C   0  0  0  0  0  0  0  0  0  0  0  0
   11.8955   10.1543   20.9252 N   0  0  0  0  0  0  0  0  0  0  0  0
    9.0084   11.7284   19.7610 O   0  0  0  0  0  0  0  0  0  0  0  0
    6.0323    8.4056   21.1272 C   0  0  0  0  0  0  0  0  0  0  0  0
   11.1675   10.7301   20.1226 C   0  0  0  0  0  0  0  0  0  0  0  0
    2.0195    7.8284   19.9743 O   0  0  0  0  0  0  0  0  0  0  0  0
    9.1588   10.3616   21.4302 N   0  0  0  0  0  0  0  0  0  0  0  0
    3.9122    9.2982   20.3307 Cl  0  0  0  0  0  0  0  0  0  0  0  0
   12.8071   10.8452   18.4795 C   0  0  0  0  0  0  0  0  0  0  0  0
    9.2600    6.5751   23.6125 C   0  0  0  0  0  0  0  0  0  0  0  0
   14.8957   10.0041   19.1211 O   0  0  0  0  0  0  0  0  0  0  0  0
    5.2427    9.4717   20.6053 C   0  0  0  0  0  0  0  0  0  0  0  0
    7.4639    8.8050   21.4208 C   0  0  0  0  0  0  0  0  0  0  0  0
    8.5821    6.6659   21.0468 C   0  0  0  0  0  0  0  0  0  0  0  0
    9.7006   10.9242   20.4118 C   0  0  0  0  0  0  0  0  0  0  0  0
    8.1308    7.6563   21.8479 C   0  0  0  0  0  0  0  0  0  0  0  0
    7.8874   10.1051   21.6134 N   0  0  0  0  0  0  0  0  0  0  0  0
    9.3714    5.6388   21.5782 C   0  0  0  0  0  0  0  0  0  0  0  0
    8.5877    7.7032   23.1583 C   0  0  0  0  0  0  0  0  0  0  0  0
   13.2226    9.9866   20.5564 C   0  0  0  0  0  0  0  0  0  0  0  0
   10.2709    4.5445   23.2359 O   0  0  0  0  0  0  0  0  0  0  0  0
    4.0648    6.9939   20.9021 C   0  0  0  0  0  0  0  0  0  0  0  0
    3.0268   10.1824   19.7707 O   0  0  0  0  0  0  0  0  0  0  0  0
    5.3572    7.2097   21.2368 C   0  0  0  0  0  0  0  0  0  0  0  0
    7.0823   11.0197   22.2568 C   0  0  0  0  0  0  0  0  0  0  0  0
  1  8  4  0
  1 12  4  0
  1 20  2  0
  2  9  1  0
  2 11  4  0
  2 25  4  0
  3 12  4  0
  3 14  1  0
  3 21  2  0
  3 23  4  0
  4 13  4  0
  4 21  4  0
  4 24  1  0
  5  8  4  0
  5 23  4  0
  6 18  2  0
  7 15  4  0
  7 16  1  0
  7 27  4  0
 10 18  1  0
 10 20  1  0
 11 15  4  0
 11 26  1  0
 13 22  4  0
 14 19  3  0
 16 19  1  0
 16 20  2  0
 17 19  4  0
 17 21  4  0
 20 28  1  0
 25 27  4  0
M  END
$$$$

 Created by Python create_sdf_string function

 28 30  0  0  0  0  0  0  0  0999 V2000
   11.5097   11.1887   18.8078 C   0  0  0  0  0  0  0  0  0  0  0  0
    3.3444    8.0111   20.4133 C   0  0  0  0  0  0  0  0  0  0  0  0
   13.6234   10.2874   19.3609 C   0  0  0  0  0  0  0  0  0  0  0  0
    9.6598    5.6080   22.8259 C   0  0  0  0  0  0  0  0  0  0  0  0
   11.8945   10.1681   20.9347 N   0  0  0  0  0  0  0  0  0  0  0  0
    9.0318   11.7240   19.7845 O   0  0  0  0  0  0  0  0  0  0  0  0
    6.0033    8.4505   21.1029 C   0  0  0  0  0  0  0  0  0  0  0  0
   11.1000   10.7675   20.0526 C   0  0  0  0  0  0  0  0  0  0  0  0
    2.0638    7.8173   20.0101 O   0  0  0  0  0  0  0  0  0  0  0  0
    9.1513   10.3452   21.4284 N   0  0  0  0  0  0  0  0  0  0  0  0
    3.8975    9.2635   20.2900 C   0  0  0  0  0  0  0  0  0  0  0  0
   12.8023   10.8942   18.4472 C   0  0  0  0  0  0  0  0  0  0  0  0
    9.2960    6.6131   23.6600 C   0  0  0  0  0  0  0  0  0  0  0  0
   14.8628   10.0188   19.0919 O   0  0  0  0  0  0  0  0  0  0  0  0
    5.2110    9.4672   20.6361 C   0  0  0  0  0  0  0  0  0  0  0  0
    7.4062    8.7892   21.4317 C   0  0  0  0  0  0  0  0  0  0  0  0
    8.5586    6.6807   21.0317 C   0  0  0  0  0  0  0  0  0  0  0  0
    9.7044   10.9849   20.4256 C   0  0  0  0  0  0  0  0  0  0  0  0
    8.1793    7.6833   21.8876 C   0  0  0  0  0  0  0  0  0  0  0  0
    7.8362   10.0816   21.5965 N   0  0  0  0  0  0  0  0  0  0  0  0
    9.3497    5.6343   21.5065 C   0  0  0  0  0  0  0  0  0  0  0  0
    8.5718    7.6857   23.1844 C   0  0  0  0  0  0  0  0  0  0  0  0
   13.1810    9.9510   20.5969 C   0  0  0  0  0  0  0  0  0  0  0  0
   10.2976    4.5702   23.2724 O   0  0  0  0  0  0  0  0  0  0  0  0
    4.0932    6.9657   20.9110 C   0  0  0  0  0  0  0  0  0  0  0  0
    3.0565   10.1724   19.7974 O   0  0  0  0  0  0  0  0  0  0  0  0
    5.4048    7.1853   21.2277 C   0  0  0  0  0  0  0  0  0  0  0  0
    7.0826   11.0468   22.2376 C   0  0  0  0  0  0  0  0  0  0  0  0
  1  8  4  0
  1 12  4  0
  2  9  1  0
  2 11  4  0
  2 25  4  0
  3 12  4  0
  3 14  1  0
  3 23  4  0
  4 13  4  0
  4 21  4  0
  4 24  1  0
  5  8  4  0
  5 23  4  0
  6 18  2  0
  7 15  4  0
  7 16  1  0
  7 27  4  0
  8 18  1  0
 10 18  1  0
 10 20  1  0
 11 15  4  0
 11 26  1  0
 13 22  4  0
 16 19  1  0
 16 20  2  0
 17 19  4  0
 17 21  4  0
 19 22  4  0
 20 28  1  0
 25 27  4  0
M  END
$$$$

 Created by Python create_sdf_string function

 28 37  0  0  0  0  0  0  0  0999 V2000
   11.4946   11.1747   18.8437 C   0  0  0  0  0  0  0  0  0  0  0  0
    3.3462    8.0274   20.4290 C   0  0  0  0  0  0  0  0  0  0  0  0
   13.6079   10.3032   19.3330 C   0  0  0  0  0  0  0  0  0  0  0  0
    9.6894    5.5303   22.8523 C   0  0  0  0  0  0  0  0  0  0  0  0
   11.8917   10.1727   20.9390 N   0  0  0  0  0  0  0  0  0  0  0  0
    9.0005   11.6932   19.8447 O   0  0  0  0  0  0  0  0  0  0  0  0
    6.0575    8.4993   21.0598 C   0  0  0  0  0  0  0  0  0  0  0  0
   11.1071   10.7617   20.0557 C   0  0  0  0  0  0  0  0  0  0  0  0
    2.0328    7.8626   20.0177 O   0  0  0  0  0  0  0  0  0  0  0  0
    9.1319   10.3547   21.4766 N   0  0  0  0  0  0  0  0  0  0  0  0
    3.9404    9.2269   20.3040 C   0  0  0  0  0  0  0  0  0  0  0  0
   12.8179   10.8785   18.4767 C   0  0  0  0  0  0  0  0  0  0  0  0
    9.3186    6.6818   23.7074 C   0  0  0  0  0  0  0  0  0  0  0  0
    5.2026    9.4984   20.5217 C   0  0  0  0  0  0  0  0  0  0  0  0
    7.4173    8.8346   21.4330 C   0  0  0  0  0  0  0  0  0  0  0  0
    8.5280    6.6762   21.0670 C   0  0  0  0  0  0  0  0  0  0  0  0
    9.6979   10.9470   20.4270 C   0  0  0  0  0  0  0  0  0  0  0  0
    8.1914    7.6958   21.8790 C   0  0  0  0  0  0  0  0  0  0  0  0
    7.8421   10.0055   21.5663 N   0  0  0  0  0  0  0  0  0  0  0  0
    9.3457    5.5804   21.5362 C   0  0  0  0  0  0  0  0  0  0  0  0
    8.5053    7.6633   23.1458 C   0  0  0  0  0  0  0  0  0  0  0  0
   13.1628    9.9859   20.6181 C   0  0  0  0  0  0  0  0  0  0  0  0
   10.3296    4.5908   23.2748 O   0  0  0  0  0  0  0  0  0  0  0  0
    4.0624    6.9830   20.9100 C   0  0  0  0  0  0  0  0  0  0  0  0
    3.0497   10.1701   19.7867 O   0  0  0  0  0  0  0  0  0  0  0  0
    5.3750    7.2017   21.2311 C   0  0  0  0  0  0  0  0  0  0  0  0
    7.1224   11.0734   22.3075 C   0  0  0  0  0  0  0  0  0  0  0  0
   14.8841    9.9738   19.0887 He  0  0  0  0  0  0  0  0  0  0  0  0
  1  8  4  0
  1 12  4  0
  2  9  1  0
  2 11  4  0
  2 24  4  0
  3 12  4  0
  3 15  2  0
  3 22  4  0
  4 13  4  0
  4 19  2  0
  4 23  1  0
  5  8  4  0
  5 16  1  0
  5 22  4  0
  6 17  2  0
  7 14  4  0
  7 15  1  0
  7 26  4  0
  8  9  2  0
  8 17  1  0
  9 15  1  0
 10 17  1  0
 10 19  1  0
 11 13  2  0
 11 14  4  0
 11 25  1  0
 12 19  1  0
 13 21  4  0
 15 18  1  0
 15 19  2  0
 15 25  1  0
 16 18  4  0
 16 20  4  0
 18 21  4  0
 19 24  4  0
 19 27  1  0
 24 26  4  0
M  END
$$$$

 Created by Python create_sdf_string function

 28 30  0  0  0  0  0  0  0  0999 V2000
   11.5039   11.1814   18.7987 C   0  0  0  0  0  0  0  0  0  0  0  0
    3.3403    8.0077   20.4171 C   0  0  0  0  0  0  0  0  0  0  0  0
   13.6025   10.2985   19.3634 C   0  0  0  0  0  0  0  0  0  0  0  0
    9.6694    5.6027   22.8463 C   0  0  0  0  0  0  0  0  0  0  0  0
   11.8771   10.1846   20.9414 N   0  0  0  0  0  0  0  0  0  0  0  0
    9.0159   11.7094   19.8418 O   0  0  0  0  0  0  0  0  0  0  0  0
    5.9973    8.4795   21.0773 C   0  0  0  0  0  0  0  0  0  0  0  0
   11.0747   10.7734   20.0527 C   0  0  0  0  0  0  0  0  0  0  0  0
    2.0635    7.8325   20.0512 O   0  0  0  0  0  0  0  0  0  0  0  0
    9.1483   10.3436   21.4477 N   0  0  0  0  0  0  0  0  0  0  0  0
    3.8991    9.2617   20.2579 C   0  0  0  0  0  0  0  0  0  0  0  0
   12.8010   10.9053   18.4608 C   0  0  0  0  0  0  0  0  0  0  0  0
    9.3123    6.6430   23.6837 C   0  0  0  0  0  0  0  0  0  0  0  0
   14.8869    9.9894   19.0695 O   0  0  0  0  0  0  0  0  0  0  0  0
    5.2161    9.4925   20.5785 C   0  0  0  0  0  0  0  0  0  0  0  0
    7.3733    8.8072   21.4360 C   0  0  0  0  0  0  0  0  0  0  0  0
    8.5368    6.6726   21.0403 C   0  0  0  0  0  0  0  0  0  0  0  0
    9.6892   10.9867   20.4362 C   0  0  0  0  0  0  0  0  0  0  0  0
    8.1560    7.6932   21.8918 C   0  0  0  0  0  0  0  0  0  0  0  0
    7.8137   10.0793   21.5846 N   0  0  0  0  0  0  0  0  0  0  0  0
    9.3170    5.6092   21.5129 C   0  0  0  0  0  0  0  0  0  0  0  0
    8.5539    7.6896   23.1830 C   0  0  0  0  0  0  0  0  0  0  0  0
   13.1604    9.9682   20.5938 C   0  0  0  0  0  0  0  0  0  0  0  0
   10.3348    4.6021   23.3015 O   0  0  0  0  0  0  0  0  0  0  0  0
    4.1068    6.9671   20.9197 C   0  0  0  0  0  0  0  0  0  0  0  0
    3.0672   10.1807   19.7881 O   0  0  0  0  0  0  0  0  0  0  0  0
    5.4221    7.2172   21.2189 C   0  0  0  0  0  0  0  0  0  0  0  0
    7.1049   11.0753   22.2836 C   0  0  0  0  0  0  0  0  0  0  0  0
  1  8  4  0
  1 12  4  0
  2  9  1  0
  2 11  4  0
  2 25  4  0
  3 12  4  0
  3 14  1  0
  3 23  4  0
  4 13  4  0
  4 21  4  0
  4 24  1  0
  5  8  4  0
  5 23  4  0
  6 18  2  0
  7 15  4  0
  7 16  1  0
  7 27  4  0
  8 18  1  0
 10 18  1  0
 10 20  1  0
 11 15  4  0
 11 26  1  0
 13 22  4  0
 16 19  1  0
 16 20  2  0
 17 19  4  0
 17 21  4  0
 19 22  4  0
 20 28  1  0
 25 27  4  0
M  END
$$$$

 Created by Python create_sdf_string function

 28 31  0  0  0  0  0  0  0  0999 V2000
   11.5546   11.1718   18.7652 P   0  0  0  0  0  0  0  0  0  0  0  0
    3.3317    8.0410   20.3830 C   0  0  0  0  0  0  0  0  0  0  0  0
   13.6092   10.2609   19.3422 C   0  0  0  0  0  0  0  0  0  0  0  0
    9.6929    5.6251   22.8547 C   0  0  0  0  0  0  0  0  0  0  0  0
   11.8642   10.2334   20.9080 N   0  0  0  0  0  0  0  0  0  0  0  0
    9.0346   11.7299   19.8849 O   0  0  0  0  0  0  0  0  0  0  0  0
    5.9967    8.4827   21.0828 C   0  0  0  0  0  0  0  0  0  0  0  0
   11.0620   10.7288   20.0382 C   0  0  0  0  0  0  0  0  0  0  0  0
    2.0693    7.8117   20.0410 O   0  0  0  0  0  0  0  0  0  0  0  0
    9.1701   10.3762   21.4810 N   0  0  0  0  0  0  0  0  0  0  0  0
    3.9103    9.2494   20.2899 C   0  0  0  0  0  0  0  0  0  0  0  0
   12.8116   10.9284   18.4826 C   0  0  0  0  0  0  0  0  0  0  0  0
   14.9300    9.9726   19.1071 O   0  0  0  0  0  0  0  0  0  0  0  0
    5.2387    9.5498   20.5363 C   0  0  0  0  0  0  0  0  0  0  0  0
    7.3730    8.8747   21.4568 C   0  0  0  0  0  0  0  0  0  0  0  0
    8.5017    6.7115   21.0340 C   0  0  0  0  0  0  0  0  0  0  0  0
    9.6685   11.0322   20.4305 C   0  0  0  0  0  0  0  0  0  0  0  0
    8.1227    7.6825   21.8799 C   0  0  0  0  0  0  0  0  0  0  0  0
    7.8405   10.0440   21.5916 N   0  0  0  0  0  0  0  0  0  0  0  0
    9.3172    5.6468   21.5235 C   0  0  0  0  0  0  0  0  0  0  0  0
    8.5721    7.6988   23.1786 C   0  0  0  0  0  0  0  0  0  0  0  0
   13.1753    9.9911   20.6035 C   0  0  0  0  0  0  0  0  0  0  0  0
   10.3562    4.5696   23.3081 O   0  0  0  0  0  0  0  0  0  0  0  0
    4.1071    6.9667   20.8512 C   0  0  0  0  0  0  0  0  0  0  0  0
    3.0628   10.1905   19.8199 O   0  0  0  0  0  0  0  0  0  0  0  0
    5.4630    7.2088   21.2515 C   0  0  0  0  0  0  0  0  0  0  0  0
    7.1384   11.0879   22.2702 C   0  0  0  0  0  0  0  0  0  0  0  0
    9.3256    6.6037   23.6829 He  0  0  0  0  0  0  0  0  0  0  0  0
  1  8  4  0
  1 12  4  0
  2  9  1  0
  2 11  4  0
  2 24  4  0
  3 12  4  0
  3 13  1  0
  3 22  4  0
  4 20  4  0
  4 23  1  0
  5  8  4  0
  5 11  3  0
  5 22  4  0
  5 26  4  0
  6 17  2  0
  7 14  4  0
  7 15  1  0
  7 26  4  0
  8 17  1  0
 10 17  1  0
 10 19  1  0
 11 14  4  0
 11 25  1  0
 13 14  2  0
 15 18  1  0
 15 19  2  0
 16 18  4  0
 16 20  4  0
 18 21  4  0
 19 27  1  0
 24 26  4  0
M  END
$$$$

 Created by Python create_sdf_string function

 28 30  0  0  0  0  0  0  0  0999 V2000
   11.5005   11.1843   18.7786 C   0  0  0  0  0  0  0  0  0  0  0  0
    3.3711    8.0000   20.3983 C   0  0  0  0  0  0  0  0  0  0  0  0
   13.6107   10.2896   19.3610 C   0  0  0  0  0  0  0  0  0  0  0  0
    9.6770    5.6209   22.8292 C   0  0  0  0  0  0  0  0  0  0  0  0
   11.8594   10.2159   20.9120 N   0  0  0  0  0  0  0  0  0  0  0  0
    9.0232   11.7674   19.8597 O   0  0  0  0  0  0  0  0  0  0  0  0
    5.9993    8.4960   21.0890 C   0  0  0  0  0  0  0  0  0  0  0  0
   11.0609   10.7944   20.0328 C   0  0  0  0  0  0  0  0  0  0  0  0
    2.1023    7.8093   20.0535 O   0  0  0  0  0  0  0  0  0  0  0  0
    9.1503   10.3659   21.4507 N   0  0  0  0  0  0  0  0  0  0  0  0
    3.9044    9.2720   20.2625 C   0  0  0  0  0  0  0  0  0  0  0  0
   12.7987   10.9144   18.4728 C   0  0  0  0  0  0  0  0  0  0  0  0
    9.3246    6.6365   23.6779 C   0  0  0  0  0  0  0  0  0  0  0  0
   14.8704    9.9924   19.0972 O   0  0  0  0  0  0  0  0  0  0  0  0
    5.2192    9.5182   20.5850 C   0  0  0  0  0  0  0  0  0  0  0  0
    7.3732    8.8233   21.4708 C   0  0  0  0  0  0  0  0  0  0  0  0
    8.5077    6.6814   21.0331 C   0  0  0  0  0  0  0  0  0  0  0  0
    9.6814   11.0289   20.4314 C   0  0  0  0  0  0  0  0  0  0  0  0
    8.1400    7.6931   21.9061 C   0  0  0  0  0  0  0  0  0  0  0  0
    7.8158   10.0996   21.5878 N   0  0  0  0  0  0  0  0  0  0  0  0
    9.3108    5.6349   21.4830 C   0  0  0  0  0  0  0  0  0  0  0  0
    8.5797    7.6902   23.1902 C   0  0  0  0  0  0  0  0  0  0  0  0
   13.1480    9.9746   20.6030 C   0  0  0  0  0  0  0  0  0  0  0  0
   10.3428    4.6144   23.2953 O   0  0  0  0  0  0  0  0  0  0  0  0
    4.1375    6.9455   20.8729 C   0  0  0  0  0  0  0  0  0  0  0  0
    3.0678   10.1834   19.8178 O   0  0  0  0  0  0  0  0  0  0  0  0
    5.4417    7.2037   21.2148 C   0  0  0  0  0  0  0  0  0  0  0  0
    7.1251   11.1023   22.2620 C   0  0  0  0  0  0  0  0  0  0  0  0
  1  8  4  0
  1 12  4  0
  2  9  1  0
  2 11  4  0
  2 25  4  0
  3 12  4  0
  3 14  1  0
  3 23  4  0
  4 13  4  0
  4 21  4  0
  4 24  1  0
  5  8  4  0
  5 23  4  0
  6 18  2  0
  7 15  4  0
  7 16  1  0
  7 27  4  0
  8 18  1  0
 10 18  1  0
 10 20  1  0
 11 15  4  0
 11 26  1  0
 13 22  4  0
 16 19  1  0
 16 20  2  0
 17 19  4  0
 17 21  4  0
 19 22  4  0
 20 28  1  0
 25 27  4  0
M  END
$$$$

 Created by Python create_sdf_string function

 28 35  0  0  0  0  0  0  0  0999 V2000
   11.5094   11.1412   18.7530 C   0  0  0  0  0  0  0  0  0  0  0  0
    3.4376    7.9626   20.3857 C   0  0  0  0  0  0  0  0  0  0  0  0
   13.6812   10.2855   19.3679 C   0  0  0  0  0  0  0  0  0  0  0  0
    9.6691    5.5901   22.8177 C   0  0  0  0  0  0  0  0  0  0  0  0
   11.8912   10.1836   20.9145 N   0  0  0  0  0  0  0  0  0  0  0  0
    9.0028   11.7583   19.8557 O   0  0  0  0  0  0  0  0  0  0  0  0
    6.0234    8.4273   21.0933 C   0  0  0  0  0  0  0  0  0  0  0  0
   11.0316   10.8162   20.0651 C   0  0  0  0  0  0  0  0  0  0  0  0
    2.1184    7.8339   20.0544 O   0  0  0  0  0  0  0  0  0  0  0  0
    9.1687   10.4113   21.4419 N   0  0  0  0  0  0  0  0  0  0  0  0
    3.8865    9.2754   20.2629 C   0  0  0  0  0  0  0  0  0  0  0  0
   12.7722   10.9297   18.4723 C   0  0  0  0  0  0  0  0  0  0  0  0
    9.3176    6.6351   23.6853 C   0  0  0  0  0  0  0  0  0  0  0  0
   14.8677    9.9352   19.0804 O   0  0  0  0  0  0  0  0  0  0  0  0
    5.2112    9.5357   20.5642 C   0  0  0  0  0  0  0  0  0  0  0  0
    7.3801    8.8534   21.4782 C   0  0  0  0  0  0  0  0  0  0  0  0
    8.5277    6.6834   21.0414 C   0  0  0  0  0  0  0  0  0  0  0  0
    9.6456   11.0345   20.4311 C   0  0  0  0  0  0  0  0  0  0  0  0
    8.1270    7.6705   21.8649 C   0  0  0  0  0  0  0  0  0  0  0  0
    7.8164   10.0976   21.5648 N   0  0  0  0  0  0  0  0  0  0  0  0
    9.2909    5.6209   21.4965 C   0  0  0  0  0  0  0  0  0  0  0  0
    8.6003    7.6803   23.1757 C   0  0  0  0  0  0  0  0  0  0  0  0
   13.1519    9.9897   20.6236 C   0  0  0  0  0  0  0  0  0  0  0  0
   10.3371    4.6523   23.2938 O   0  0  0  0  0  0  0  0  0  0  0  0
    4.1149    6.9595   20.8762 C   0  0  0  0  0  0  0  0  0  0  0  0
    3.0861   10.1978   19.7951 O   0  0  0  0  0  0  0  0  0  0  0  0
    5.4678    7.2281   21.1709 C   0  0  0  0  0  0  0  0  0  0  0  0
    7.1334   11.0495   22.2439 C   0  0  0  0  0  0  0  0  0  0  0  0
  1  8  4  0
  1 12  4  0
  1 24  2  0
  2  9  1  0
  2 11  4  0
  2 25  4  0
  3 12  4  0
  3 14  1  0
  3 23  4  0
  4 13  4  0
  4 21  4  0
  4 24  1  0
  5  8  4  0
  5 23  4  0
  6 18  2  0
  7 15  4  0
  7 16  1  0
  7 27  4  0
  8 18  1  0
 10 18  1  0
 10 20  1  0
 11 15  4  0
 11 22  1  0
 11 26  1  0
 13 22  4  0
 13 28  1  0
 14 23  4  0
 15 27  4  0
 16 19  1  0
 16 20  2  0
 17 19  4  0
 17 21  4  0
 19 22  4  0
 20 28  1  0
 25 27  4  0
M  END
$$$$

 Created by Python create_sdf_string function

 28 30  0  0  0  0  0  0  0  0999 V2000
   11.4957   11.1721   18.7752 C   0  0  0  0  0  0  0  0  0  0  0  0
    3.3849    7.9823   20.3847 C   0  0  0  0  0  0  0  0  0  0  0  0
   13.6245   10.2978   19.3648 C   0  0  0  0  0  0  0  0  0  0  0  0
    9.6678    5.6080   22.8178 C   0  0  0  0  0  0  0  0  0  0  0  0
   11.8597   10.2128   20.9167 N   0  0  0  0  0  0  0  0  0  0  0  0
    9.0056   11.7896   19.8457 O   0  0  0  0  0  0  0  0  0  0  0  0
    6.0024    8.4781   21.0824 C   0  0  0  0  0  0  0  0  0  0  0  0
   11.0568   10.8021   20.0373 C   0  0  0  0  0  0  0  0  0  0  0  0
    2.1142    7.8044   20.0499 O   0  0  0  0  0  0  0  0  0  0  0  0
    9.1464   10.3791   21.4317 N   0  0  0  0  0  0  0  0  0  0  0  0
    3.9003    9.2648   20.2508 C   0  0  0  0  0  0  0  0  0  0  0  0
   12.7947   10.9194   18.4518 C   0  0  0  0  0  0  0  0  0  0  0  0
    9.3331    6.6290   23.6715 C   0  0  0  0  0  0  0  0  0  0  0  0
   14.8427    9.9748   19.0789 O   0  0  0  0  0  0  0  0  0  0  0  0
    5.2138    9.4939   20.6072 C   0  0  0  0  0  0  0  0  0  0  0  0
    7.3833    8.8209   21.4676 C   0  0  0  0  0  0  0  0  0  0  0  0
    8.5089    6.6826   21.0318 C   0  0  0  0  0  0  0  0  0  0  0  0
    9.6749   11.0456   20.4271 C   0  0  0  0  0  0  0  0  0  0  0  0
    8.1615    7.6843   21.9037 C   0  0  0  0  0  0  0  0  0  0  0  0
    7.8041   10.1087   21.5772 N   0  0  0  0  0  0  0  0  0  0  0  0
    9.2928    5.6179   21.4880 C   0  0  0  0  0  0  0  0  0  0  0  0
    8.5917    7.6897   23.1829 C   0  0  0  0  0  0  0  0  0  0  0  0
   13.1438    9.9784   20.6127 C   0  0  0  0  0  0  0  0  0  0  0  0
   10.3484    4.6254   23.2830 O   0  0  0  0  0  0  0  0  0  0  0  0
    4.1550    6.9440   20.8651 C   0  0  0  0  0  0  0  0  0  0  0  0
    3.0833   10.1847   19.7956 O   0  0  0  0  0  0  0  0  0  0  0  0
    5.4577    7.2150   21.1782 C   0  0  0  0  0  0  0  0  0  0  0  0
    7.1071   11.0887   22.2500 C   0  0  0  0  0  0  0  0  0  0  0  0
  1  8  4  0
  1 12  4  0
  2  9  1  0
  2 11  4  0
  2 25  4  0
  3 12  4  0
  3 14  1  0
  3 23  4  0
  4 13  4  0
  4 21  4  0
  4 24  1  0
  5  8  4  0
  5 23  4  0
  6 18  2  0
  7 15  4  0
  7 16  1  0
  7 27  4  0
  8 18  1  0
 10 18  1  0
 10 20  1  0
 11 15  4  0
 11 26  1  0
 13 22  4  0
 16 19  1  0
 16 20  2  0
 17 19  4  0
 17 21  4  0
 19 22  4  0
 20 28  1  0
 25 27  4  0
M  END
$$$$

 Created by Python create_sdf_string function

 28 29  0  0  0  0  0  0  0  0999 V2000
   11.4965   11.1984   18.7836 C   0  0  0  0  0  0  0  0  0  0  0  0
    3.3908    8.0003   20.3716 C   0  0  0  0  0  0  0  0  0  0  0  0
   13.6346   10.2902   19.3859 C   0  0  0  0  0  0  0  0  0  0  0  0
    9.6676    5.5929   22.8614 C   0  0  0  0  0  0  0  0  0  0  0  0
   11.8759   10.2303   20.9096 N   0  0  0  0  0  0  0  0  0  0  0  0
    8.9683   11.8342   19.8662 O   0  0  0  0  0  0  0  0  0  0  0  0
    5.9967    8.4966   21.0585 C   0  0  0  0  0  0  0  0  0  0  0  0
   11.0508   10.8125   20.0182 C   0  0  0  0  0  0  0  0  0  0  0  0
    2.1194    7.7844   20.0309 O   0  0  0  0  0  0  0  0  0  0  0  0
    9.1768   10.4136   21.4442 N   0  0  0  0  0  0  0  0  0  0  0  0
    3.8913    9.2685   20.2452 C   0  0  0  0  0  0  0  0  0  0  0  0
   12.7725   10.9418   18.4843 C   0  0  0  0  0  0  0  0  0  0  0  0
    9.3478    6.6564   23.7271 C   0  0  0  0  0  0  0  0  0  0  0  0
   14.8598    9.9966   19.1000 O   0  0  0  0  0  0  0  0  0  0  0  0
    5.2033    9.4867   20.6075 C   0  0  0  0  0  0  0  0  0  0  0  0
    7.3778    8.7978   21.4562 C   0  0  0  0  0  0  0  0  0  0  0  0
    8.5071    6.6463   21.0159 C   0  0  0  0  0  0  0  0  0  0  0  0
    9.6938   11.0440   20.4289 C   0  0  0  0  0  0  0  0  0  0  0  0
    8.1702    7.7042   21.9130 C   0  0  0  0  0  0  0  0  0  0  0  0
    7.8126   10.1061   21.5889 N   0  0  0  0  0  0  0  0  0  0  0  0
    9.3045    5.6373   21.4985 C   0  0  0  0  0  0  0  0  0  0  0  0
    8.5522    7.6750   23.1877 C   0  0  0  0  0  0  0  0  0  0  0  0
   13.1449    9.9716   20.5967 C   0  0  0  0  0  0  0  0  0  0  0  0
   10.3915    4.6362   23.2830 O   0  0  0  0  0  0  0  0  0  0  0  0
    4.1263    6.9679   20.8117 C   0  0  0  0  0  0  0  0  0  0  0  0
    5.4489    7.2240   21.1708 C   0  0  0  0  0  0  0  0  0  0  0  0
    3.0726   10.1795   19.8195 He  0  0  0  0  0  0  0  0  0  0  0  0
    7.1046   11.0891   22.2182 He  0  0  0  0  0  0  0  0  0  0  0  0
  1  8  4  0
  1 12  4  0
  2  9  1  0
  2 11  4  0
  2 25  4  0
  3 10  1  0
  3 12  4  0
  3 14  1  0
  3 23  4  0
  4 13  4  0
  4 21  4  0
  4 24  1  0
  5  8  4  0
  5 23  4  0
  6 18  2  0
  7 15  4  0
  7 16  1  0
  7 26  4  0
  8 18  1  0
 10 18  1  0
 10 20  1  0
 11 15  4  0
 13 22  4  0
 16 19  1  0
 16 20  2  0
 17 19  4  0
 17 21  4  0
 19 22  4  0
 25 26  4  0
M  END
$$$$

 Created by Python create_sdf_string function

 28 30  0  0  0  0  0  0  0  0999 V2000
   11.5048   11.2066   18.7919 C   0  0  0  0  0  0  0  0  0  0  0  0
    3.3929    7.9806   20.3713 C   0  0  0  0  0  0  0  0  0  0  0  0
   13.6063   10.3090   19.3727 C   0  0  0  0  0  0  0  0  0  0  0  0
    9.6792    5.6193   22.8332 C   0  0  0  0  0  0  0  0  0  0  0  0
   11.8444   10.2274   20.9114 N   0  0  0  0  0  0  0  0  0  0  0  0
    8.9905   11.8376   19.8694 O   0  0  0  0  0  0  0  0  0  0  0  0
    5.9914    8.4878   21.0732 C   0  0  0  0  0  0  0  0  0  0  0  0
   11.0479   10.8289   20.0333 C   0  0  0  0  0  0  0  0  0  0  0  0
    2.1213    7.7868   20.0272 O   0  0  0  0  0  0  0  0  0  0  0  0
    9.1432   10.3933   21.4355 N   0  0  0  0  0  0  0  0  0  0  0  0
    3.8983    9.2590   20.2540 C   0  0  0  0  0  0  0  0  0  0  0  0
   12.7945   10.9379   18.4692 C   0  0  0  0  0  0  0  0  0  0  0  0
    9.3405    6.6476   23.7058 C   0  0  0  0  0  0  0  0  0  0  0  0
   14.8366   10.0164   19.0923 O   0  0  0  0  0  0  0  0  0  0  0  0
    5.1954    9.5160   20.6162 C   0  0  0  0  0  0  0  0  0  0  0  0
    7.3683    8.8085   21.4619 C   0  0  0  0  0  0  0  0  0  0  0  0
    8.5028    6.6611   21.0242 C   0  0  0  0  0  0  0  0  0  0  0  0
    9.6740   11.0746   20.4254 C   0  0  0  0  0  0  0  0  0  0  0  0
    8.1586    7.6866   21.9042 C   0  0  0  0  0  0  0  0  0  0  0  0
    7.8114   10.1076   21.5838 N   0  0  0  0  0  0  0  0  0  0  0  0
    9.3041    5.6179   21.4904 C   0  0  0  0  0  0  0  0  0  0  0  0
    8.5786    7.6886   23.1990 C   0  0  0  0  0  0  0  0  0  0  0  0
   13.1295    9.9644   20.6122 C   0  0  0  0  0  0  0  0  0  0  0  0
   10.3791    4.6384   23.2775 O   0  0  0  0  0  0  0  0  0  0  0  0
    4.1524    6.9338   20.8238 C   0  0  0  0  0  0  0  0  0  0  0  0
    3.0647   10.1903   19.8066 O   0  0  0  0  0  0  0  0  0  0  0  0
    5.4510    7.1970   21.1519 C   0  0  0  0  0  0  0  0  0  0  0  0
    7.0992   11.0711   22.1874 O   0  0  0  0  0  0  0  0  0  0  0  0
  1  8  4  0
  1 12  4  0
  2  9  1  0
  2 11  4  0
  2 25  4  0
  3 12  4  0
  3 14  1  0
  3 23  4  0
  4 13  4  0
  4 21  4  0
  4 24  1  0
  5  8  4  0
  5 23  4  0
  6 18  2  0
  7 15  4  0
  7 16  1  0
  7 27  4  0
  8 18  1  0
 10 18  1  0
 10 20  1  0
 11 15  4  0
 11 26  1  0
 13 22  4  0
 16 19  1  0
 16 20  2  0
 17 19  4  0
 17 21  4  0
 19 22  4  0
 20 28  1  0
 25 27  4  0
M  END
$$$$

 Created by Python create_sdf_string function

 28 29  0  0  0  0  0  0  0  0999 V2000
   11.5252   11.2084   18.7759 C   0  0  0  0  0  0  0  0  0  0  0  0
    3.3809    7.9677   20.3799 C   0  0  0  0  0  0  0  0  0  0  0  0
   13.6131   10.3207   19.3857 C   0  0  0  0  0  0  0  0  0  0  0  0
    9.6622    5.6156   22.8177 C   0  0  0  0  0  0  0  0  0  0  0  0
   11.8478   10.2079   20.8986 N   0  0  0  0  0  0  0  0  0  0  0  0
    8.9770   11.8083   19.8892 O   0  0  0  0  0  0  0  0  0  0  0  0
    6.0064    8.4678   21.0906 C   0  0  0  0  0  0  0  0  0  0  0  0
   11.0664   10.8256   20.0383 C   0  0  0  0  0  0  0  0  0  0  0  0
    2.1097    7.7748   19.9981 O   0  0  0  0  0  0  0  0  0  0  0  0
    9.1532   10.3992   21.4301 N   0  0  0  0  0  0  0  0  0  0  0  0
    3.8763    9.2706   20.2554 C   0  0  0  0  0  0  0  0  0  0  0  0
   12.8013   10.9059   18.4744 C   0  0  0  0  0  0  0  0  0  0  0  0
    9.3332    6.6574   23.7251 C   0  0  0  0  0  0  0  0  0  0  0  0
   14.8413   10.0179   19.1097 O   0  0  0  0  0  0  0  0  0  0  0  0
    5.1792    9.5212   20.6441 C   0  0  0  0  0  0  0  0  0  0  0  0
    7.3749    8.8083   21.4764 C   0  0  0  0  0  0  0  0  0  0  0  0
    8.4944    6.6468   21.0262 C   0  0  0  0  0  0  0  0  0  0  0  0
    9.6887   11.1087   20.4154 C   0  0  0  0  0  0  0  0  0  0  0  0
    8.1670    7.6827   21.8715 C   0  0  0  0  0  0  0  0  0  0  0  0
    7.8453   10.0917   21.5762 N   0  0  0  0  0  0  0  0  0  0  0  0
    9.3215    5.6083   21.4837 C   0  0  0  0  0  0  0  0  0  0  0  0
    8.6140    7.7084   23.1942 C   0  0  0  0  0  0  0  0  0  0  0  0
   13.1351    9.9667   20.6239 C   0  0  0  0  0  0  0  0  0  0  0  0
   10.3456    4.6363   23.2751 O   0  0  0  0  0  0  0  0  0  0  0  0
    4.1562    6.9425   20.8308 C   0  0  0  0  0  0  0  0  0  0  0  0
    3.0825   10.1903   19.7991 O   0  0  0  0  0  0  0  0  0  0  0  0
    5.4540    7.2017   21.1422 C   0  0  0  0  0  0  0  0  0  0  0  0
    7.1011   11.0947   22.1820 O   0  0  0  0  0  0  0  0  0  0  0  0
  1  8  4  0
  1 12  4  0
  2  9  1  0
  2 11  4  0
  2 25  4  0
  3 14  1  0
  3 23  4  0
  4 13  4  0
  4 21  4  0
  4 24  1  0
  5  8  4  0
  5 23  4  0
  6 18  2  0
  7 15  4  0
  7 16  1  0
  7 27  4  0
  8 18  1  0
 10 18  1  0
 10 20  1  0
 11 15  4  0
 11 26  1  0
 13 22  4  0
 16 19  1  0
 16 20  2  0
 17 19  4  0
 17 21  4  0
 19 22  4  0
 20 28  1  0
 25 27  4  0
M  END
$$$$

 Created by Python create_sdf_string function

 28 30  0  0  0  0  0  0  0  0999 V2000
   11.5021   11.2224   18.7847 C   0  0  0  0  0  0  0  0  0  0  0  0
    3.3911    7.9648   20.3757 C   0  0  0  0  0  0  0  0  0  0  0  0
   13.5895   10.3171   19.3855 C   0  0  0  0  0  0  0  0  0  0  0  0
    9.6746    5.6208   22.8239 C   0  0  0  0  0  0  0  0  0  0  0  0
   11.8269   10.2237   20.9021 N   0  0  0  0  0  0  0  0  0  0  0  0
    8.9765   11.8422   19.8790 O   0  0  0  0  0  0  0  0  0  0  0  0
    6.0041    8.4815   21.0903 C   0  0  0  0  0  0  0  0  0  0  0  0
   11.0469   10.8436   20.0314 C   0  0  0  0  0  0  0  0  0  0  0  0
    2.1310    7.7667   20.0089 O   0  0  0  0  0  0  0  0  0  0  0  0
    9.1447   10.3907   21.4224 N   0  0  0  0  0  0  0  0  0  0  0  0
    3.8964    9.2585   20.2691 C   0  0  0  0  0  0  0  0  0  0  0  0
   12.7907   10.9206   18.4817 C   0  0  0  0  0  0  0  0  0  0  0  0
    9.3451    6.6524   23.6998 C   0  0  0  0  0  0  0  0  0  0  0  0
   14.8123   10.0407   19.1003 O   0  0  0  0  0  0  0  0  0  0  0  0
    5.1902    9.5119   20.6600 C   0  0  0  0  0  0  0  0  0  0  0  0
    7.3797    8.8217   21.4723 C   0  0  0  0  0  0  0  0  0  0  0  0
    8.4863    6.6504   21.0262 C   0  0  0  0  0  0  0  0  0  0  0  0
    9.6830   11.0957   20.4259 C   0  0  0  0  0  0  0  0  0  0  0  0
    8.1587    7.6841   21.8952 C   0  0  0  0  0  0  0  0  0  0  0  0
    7.8179   10.1119   21.5674 N   0  0  0  0  0  0  0  0  0  0  0  0
    9.3030    5.6108   21.4694 C   0  0  0  0  0  0  0  0  0  0  0  0
    8.6141    7.7097   23.1860 C   0  0  0  0  0  0  0  0  0  0  0  0
   13.1189    9.9697   20.6109 C   0  0  0  0  0  0  0  0  0  0  0  0
   10.3504    4.6289   23.2767 O   0  0  0  0  0  0  0  0  0  0  0  0
    4.1669    6.9310   20.8250 C   0  0  0  0  0  0  0  0  0  0  0  0
    3.0839   10.1682   19.8061 O   0  0  0  0  0  0  0  0  0  0  0  0
    5.4728    7.1855   21.1380 C   0  0  0  0  0  0  0  0  0  0  0  0
    7.0985   11.0638   22.1404 O   0  0  0  0  0  0  0  0  0  0  0  0
  1  8  4  0
  1 12  4  0
  2  9  1  0
  2 11  4  0
  2 25  4  0
  3 12  4  0
  3 14  1  0
  3 23  4  0
  4 13  4  0
  4 21  4  0
  4 24  1  0
  5  8  4  0
  5 23  4  0
  6 18  2  0
  7 15  4  0
  7 16  1  0
  7 27  4  0
  8 18  1  0
 10 18  1  0
 10 20  1  0
 11 15  4  0
 11 26  1  0
 13 22  4  0
 16 19  1  0
 16 20  2  0
 17 19  4  0
 17 21  4  0
 19 22  4  0
 20 28  1  0
 25 27  4  0
M  END
$$$$

 Created by Python create_sdf_string function

 28 27  0  0  0  0  0  0  0  0999 V2000
   11.5123   11.2419   18.8042 C   0  0  0  0  0  0  0  0  0  0  0  0
    3.3813    7.9386   20.3645 C   0  0  0  0  0  0  0  0  0  0  0  0
   13.5832   10.3177   19.3897 C   0  0  0  0  0  0  0  0  0  0  0  0
    9.6986    5.6419   22.8270 C   0  0  0  0  0  0  0  0  0  0  0  0
   11.8553   10.2260   20.9069 N   0  0  0  0  0  0  0  0  0  0  0  0
    8.9728   11.8281   19.8763 O   0  0  0  0  0  0  0  0  0  0  0  0
    6.0085    8.4890   21.1079 C   0  0  0  0  0  0  0  0  0  0  0  0
    2.1162    7.7778   20.0235 O   0  0  0  0  0  0  0  0  0  0  0  0
    9.1517   10.4011   21.4398 N   0  0  0  0  0  0  0  0  0  0  0  0
    3.8843    9.2588   20.2864 C   0  0  0  0  0  0  0  0  0  0  0  0
   12.7651   10.9168   18.4802 C   0  0  0  0  0  0  0  0  0  0  0  0
    9.3361    6.6610   23.7121 C   0  0  0  0  0  0  0  0  0  0  0  0
   14.8178   10.0405   19.1005 O   0  0  0  0  0  0  0  0  0  0  0  0
    5.2127    9.5035   20.6632 C   0  0  0  0  0  0  0  0  0  0  0  0
    7.3668    8.8248   21.4992 C   0  0  0  0  0  0  0  0  0  0  0  0
    8.4655    6.6446   21.0352 C   0  0  0  0  0  0  0  0  0  0  0  0
    9.6871   11.0993   20.4313 C   0  0  0  0  0  0  0  0  0  0  0  0
    8.1344    7.6556   21.9000 C   0  0  0  0  0  0  0  0  0  0  0  0
    7.8222   10.1505   21.5878 N   0  0  0  0  0  0  0  0  0  0  0  0
    9.3107    5.6139   21.4607 C   0  0  0  0  0  0  0  0  0  0  0  0
    8.6090    7.7080   23.1651 C   0  0  0  0  0  0  0  0  0  0  0  0
   13.1150    9.9755   20.5926 C   0  0  0  0  0  0  0  0  0  0  0  0
   10.3569    4.6289   23.2756 O   0  0  0  0  0  0  0  0  0  0  0  0
    4.1629    6.9006   20.8187 C   0  0  0  0  0  0  0  0  0  0  0  0
    3.0878   10.1869   19.7973 O   0  0  0  0  0  0  0  0  0  0  0  0
    5.4918    7.1903   21.1103 C   0  0  0  0  0  0  0  0  0  0  0  0
    7.0926   11.0578   22.1342 O   0  0  0  0  0  0  0  0  0  0  0  0
   11.0593   10.8472   20.0189 He  0  0  0  0  0  0  0  0  0  0  0  0
  1 11  4  0
  2  8  1  0
  2 10  4  0
  2 24  4  0
  3 11  4  0
  3 13  1  0
  3 22  4  0
  4 12  4  0
  4 20  4  0
  4 23  1  0
  5 22  4  0
  6 17  2  0
  7 14  4  0
  7 15  1  0
  7 26  4  0
  9 17  1  0
  9 19  1  0
 10 14  4  0
 10 25  1  0
 12 21  4  0
 15 18  1  0
 15 19  2  0
 16 18  4  0
 16 20  4  0
 18 21  4  0
 19 27  1  0
 24 26  4  0
M  END
$$$$

 Created by Python create_sdf_string function

 28 30  0  0  0  0  0  0  0  0999 V2000
   11.4908   11.2468   18.8030 C   0  0  0  0  0  0  0  0  0  0  0  0
    3.3983    7.9406   20.3735 C   0  0  0  0  0  0  0  0  0  0  0  0
   13.5620   10.3264   19.3741 C   0  0  0  0  0  0  0  0  0  0  0  0
    9.6899    5.6349   22.8139 C   0  0  0  0  0  0  0  0  0  0  0  0
   11.8207   10.2352   20.9105 N   0  0  0  0  0  0  0  0  0  0  0  0
    8.9784   11.8486   19.8765 O   0  0  0  0  0  0  0  0  0  0  0  0
    6.0098    8.4766   21.1007 C   0  0  0  0  0  0  0  0  0  0  0  0
   11.0366   10.8580   20.0398 C   0  0  0  0  0  0  0  0  0  0  0  0
    2.1369    7.7703   20.0255 O   0  0  0  0  0  0  0  0  0  0  0  0
    9.1412   10.3941   21.4204 N   0  0  0  0  0  0  0  0  0  0  0  0
    3.9033    9.2403   20.2891 C   0  0  0  0  0  0  0  0  0  0  0  0
   12.7629   10.9407   18.4731 C   0  0  0  0  0  0  0  0  0  0  0  0
    9.3547    6.6609   23.6905 C   0  0  0  0  0  0  0  0  0  0  0  0
   14.7929   10.0525   19.0956 O   0  0  0  0  0  0  0  0  0  0  0  0
    5.1877    9.4976   20.6778 C   0  0  0  0  0  0  0  0  0  0  0  0
    7.3804    8.8251   21.4942 C   0  0  0  0  0  0  0  0  0  0  0  0
    8.4608    6.6405   21.0272 C   0  0  0  0  0  0  0  0  0  0  0  0
    9.6839   11.0997   20.4279 C   0  0  0  0  0  0  0  0  0  0  0  0
    8.1463    7.6729   21.9081 C   0  0  0  0  0  0  0  0  0  0  0  0
    7.8006   10.1417   21.5682 N   0  0  0  0  0  0  0  0  0  0  0  0
    9.2974    5.6164   21.4637 C   0  0  0  0  0  0  0  0  0  0  0  0
    8.6139    7.7107   23.1894 C   0  0  0  0  0  0  0  0  0  0  0  0
   13.1000    9.9746   20.5953 C   0  0  0  0  0  0  0  0  0  0  0  0
   10.3624    4.6396   23.2657 O   0  0  0  0  0  0  0  0  0  0  0  0
    4.1777    6.8850   20.8099 C   0  0  0  0  0  0  0  0  0  0  0  0
    3.0871   10.1587   19.8120 O   0  0  0  0  0  0  0  0  0  0  0  0
    5.4866    7.1644   21.1170 C   0  0  0  0  0  0  0  0  0  0  0  0
    7.0836   11.0447   22.0999 O   0  0  0  0  0  0  0  0  0  0  0  0
  1  8  4  0
  1 12  4  0
  2  9  1  0
  2 11  4  0
  2 25  4  0
  3 12  4  0
  3 14  1  0
  3 23  4  0
  4 13  4  0
  4 21  4  0
  4 24  1  0
  5  8  4  0
  5 23  4  0
  6 18  2  0
  7 15  4  0
  7 16  1  0
  7 27  4  0
  8 18  1  0
 10 18  1  0
 10 20  1  0
 11 15  4  0
 11 26  1  0
 13 22  4  0
 16 19  1  0
 16 20  2  0
 17 19  4  0
 17 21  4  0
 19 22  4  0
 20 28  1  0
 25 27  4  0
M  END
$$$$

 Created by Python create_sdf_string function

 28 30  0  0  0  0  0  0  0  0999 V2000
   11.5008   11.2344   18.8198 C   0  0  0  0  0  0  0  0  0  0  0  0
    3.3867    7.9399   20.3744 C   0  0  0  0  0  0  0  0  0  0  0  0
   13.5615   10.3158   19.3804 C   0  0  0  0  0  0  0  0  0  0  0  0
    9.6679    5.6576   22.8165 C   0  0  0  0  0  0  0  0  0  0  0  0
   11.8177   10.2415   20.9134 N   0  0  0  0  0  0  0  0  0  0  0  0
    8.9868   11.8505   19.8843 O   0  0  0  0  0  0  0  0  0  0  0  0
    6.0159    8.4746   21.1005 C   0  0  0  0  0  0  0  0  0  0  0  0
   11.0397   10.8665   20.0445 C   0  0  0  0  0  0  0  0  0  0  0  0
    2.1306    7.7808   20.0265 O   0  0  0  0  0  0  0  0  0  0  0  0
    9.1456   10.4066   21.3994 N   0  0  0  0  0  0  0  0  0  0  0  0
    3.9111    9.2331   20.2964 C   0  0  0  0  0  0  0  0  0  0  0  0
   12.7695   10.9433   18.4735 C   0  0  0  0  0  0  0  0  0  0  0  0
    9.3514    6.6533   23.7086 C   0  0  0  0  0  0  0  0  0  0  0  0
   14.7796   10.0626   19.1175 O   0  0  0  0  0  0  0  0  0  0  0  0
    5.1826    9.5190   20.6798 C   0  0  0  0  0  0  0  0  0  0  0  0
    7.3742    8.8319   21.4842 C   0  0  0  0  0  0  0  0  0  0  0  0
    8.4650    6.6493   21.0297 C   0  0  0  0  0  0  0  0  0  0  0  0
    9.6701   11.1213   20.4297 C   0  0  0  0  0  0  0  0  0  0  0  0
    8.1517    7.6756   21.8983 C   0  0  0  0  0  0  0  0  0  0  0  0
    7.7953   10.1331   21.5480 N   0  0  0  0  0  0  0  0  0  0  0  0
    9.3162    5.6227   21.4578 C   0  0  0  0  0  0  0  0  0  0  0  0
    8.6021    7.7452   23.1789 C   0  0  0  0  0  0  0  0  0  0  0  0
   13.1019    9.9633   20.5903 C   0  0  0  0  0  0  0  0  0  0  0  0
   10.3716    4.6665   23.2551 O   0  0  0  0  0  0  0  0  0  0  0  0
    4.1746    6.8923   20.8050 C   0  0  0  0  0  0  0  0  0  0  0  0
    3.0781   10.1623   19.8156 O   0  0  0  0  0  0  0  0  0  0  0  0
    5.4968    7.1603   21.1235 C   0  0  0  0  0  0  0  0  0  0  0  0
    7.0806   11.0354   22.0949 O   0  0  0  0  0  0  0  0  0  0  0  0
  1  8  4  0
  1 12  4  0
  2  9  1  0
  2 11  4  0
  2 25  4  0
  3 12  4  0
  3 14  1  0
  3 23  4  0
  4 13  4  0
  4 21  4  0
  4 24  1  0
  5  8  4  0
  5 23  4  0
  6 18  2  0
  7 15  4  0
  7 16  1  0
  7 27  4  0
  8 18  1  0
 10 18  1  0
 10 20  1  0
 11 15  4  0
 11 26  1  0
 13 22  4  0
 16 19  1  0
 16 20  2  0
 17 19  4  0
 17 21  4  0
 19 22  4  0
 20 28  1  0
 25 27  4  0
M  END
$$$$

 Created by Python create_sdf_string function

 28 30  0  0  0  0  0  0  0  0999 V2000
   11.4837   11.2559   18.8096 C   0  0  0  0  0  0  0  0  0  0  0  0
    3.4044    7.9319   20.3786 C   0  0  0  0  0  0  0  0  0  0  0  0
   13.5493   10.3296   19.3722 C   0  0  0  0  0  0  0  0  0  0  0  0
    9.6827    5.6487   22.8086 C   0  0  0  0  0  0  0  0  0  0  0  0
   11.8039   10.2427   20.9112 N   0  0  0  0  0  0  0  0  0  0  0  0
    8.9807   11.8852   19.8769 O   0  0  0  0  0  0  0  0  0  0  0  0
    6.0156    8.4710   21.1019 C   0  0  0  0  0  0  0  0  0  0  0  0
   11.0259   10.8705   20.0444 C   0  0  0  0  0  0  0  0  0  0  0  0
    2.1481    7.7674   20.0296 O   0  0  0  0  0  0  0  0  0  0  0  0
    9.1263   10.3929   21.3971 N   0  0  0  0  0  0  0  0  0  0  0  0
    3.9080    9.2257   20.2989 C   0  0  0  0  0  0  0  0  0  0  0  0
   12.7529   10.9629   18.4648 C   0  0  0  0  0  0  0  0  0  0  0  0
    9.3577    6.6692   23.6878 C   0  0  0  0  0  0  0  0  0  0  0  0
   14.7652   10.0654   19.1062 O   0  0  0  0  0  0  0  0  0  0  0  0
    5.1854    9.4946   20.6924 C   0  0  0  0  0  0  0  0  0  0  0  0
    7.3798    8.8263   21.4824 C   0  0  0  0  0  0  0  0  0  0  0  0
    8.4598    6.6519   21.0236 C   0  0  0  0  0  0  0  0  0  0  0  0
    9.6630   11.1234   20.4271 C   0  0  0  0  0  0  0  0  0  0  0  0
    8.1503    7.6832   21.9064 C   0  0  0  0  0  0  0  0  0  0  0  0
    7.7879   10.1381   21.5361 N   0  0  0  0  0  0  0  0  0  0  0  0
    9.2959    5.6283   21.4596 C   0  0  0  0  0  0  0  0  0  0  0  0
    8.6178    7.7312   23.1936 C   0  0  0  0  0  0  0  0  0  0  0  0
   13.0779    9.9704   20.5916 C   0  0  0  0  0  0  0  0  0  0  0  0
   10.3759    4.6601   23.2527 O   0  0  0  0  0  0  0  0  0  0  0  0
    4.1890    6.8754   20.8024 C   0  0  0  0  0  0  0  0  0  0  0  0
    3.0789   10.1424   19.8270 O   0  0  0  0  0  0  0  0  0  0  0  0
    5.4968    7.1517   21.1194 C   0  0  0  0  0  0  0  0  0  0  0  0
    7.0672   11.0300   22.0609 O   0  0  0  0  0  0  0  0  0  0  0  0
  1  8  4  0
  1 12  4  0
  2  9  1  0
  2 11  4  0
  2 25  4  0
  3 12  4  0
  3 14  1  0
  3 23  4  0
  4 13  4  0
  4 21  4  0
  4 24  1  0
  5  8  4  0
  5 23  4  0
  6 18  2  0
  7 15  4  0
  7 16  1  0
  7 27  4  0
  8 18  1  0
 10 18  1  0
 10 20  1  0
 11 15  4  0
 11 26  1  0
 13 22  4  0
 16 19  1  0
 16 20  2  0
 17 19  4  0
 17 21  4  0
 19 22  4  0
 20 28  1  0
 25 27  4  0
M  END
$$$$

 Created by Python create_sdf_string function

 28 31  0  0  0  0  0  0  0  0999 V2000
   11.4874   11.2564   18.7994 C   0  0  0  0  0  0  0  0  0  0  0  0
    3.4088    7.9356   20.3817 C   0  0  0  0  0  0  0  0  0  0  0  0
   13.5544   10.3347   19.3712 C   0  0  0  0  0  0  0  0  0  0  0  0
    9.6805    5.6538   22.8012 C   0  0  0  0  0  0  0  0  0  0  0  0
   11.8111   10.2430   20.8912 N   0  0  0  0  0  0  0  0  0  0  0  0
    8.9918   11.8830   19.8770 O   0  0  0  0  0  0  0  0  0  0  0  0
    6.0100    8.4685   21.1078 C   0  0  0  0  0  0  0  0  0  0  0  0
   11.0131   10.8765   20.0450 C   0  0  0  0  0  0  0  0  0  0  0  0
    2.1563    7.7724   20.0278 O   0  0  0  0  0  0  0  0  0  0  0  0
    9.1319   10.3961   21.3945 N   0  0  0  0  0  0  0  0  0  0  0  0
    3.9001    9.2243   20.3004 C   0  0  0  0  0  0  0  0  0  0  0  0
   12.7590   10.9585   18.4658 C   0  0  0  0  0  0  0  0  0  0  0  0
    9.3614    6.6632   23.6815 C   0  0  0  0  0  0  0  0  0  0  0  0
   14.7665   10.0599   19.0972 O   0  0  0  0  0  0  0  0  0  0  0  0
    5.1798    9.4906   20.6890 C   0  0  0  0  0  0  0  0  0  0  0  0
    7.3830    8.8240   21.4806 C   0  0  0  0  0  0  0  0  0  0  0  0
    8.4485    6.6525   21.0144 C   0  0  0  0  0  0  0  0  0  0  0  0
    9.6632   11.1273   20.4160 C   0  0  0  0  0  0  0  0  0  0  0  0
    8.1501    7.6927   21.9055 C   0  0  0  0  0  0  0  0  0  0  0  0
    7.7954   10.1371   21.5315 N   0  0  0  0  0  0  0  0  0  0  0  0
    9.2892    5.6246   21.4570 C   0  0  0  0  0  0  0  0  0  0  0  0
    8.6119    7.7366   23.1954 C   0  0  0  0  0  0  0  0  0  0  0  0
   13.0854    9.9693   20.5884 C   0  0  0  0  0  0  0  0  0  0  0  0
   10.3788    4.6586   23.2484 O   0  0  0  0  0  0  0  0  0  0  0  0
    4.1967    6.8709   20.8083 C   0  0  0  0  0  0  0  0  0  0  0  0
    3.0790   10.1408   19.8321 O   0  0  0  0  0  0  0  0  0  0  0  0
    5.4930    7.1466   21.1249 C   0  0  0  0  0  0  0  0  0  0  0  0
    7.0711   11.0242   22.0600 O   0  0  0  0  0  0  0  0  0  0  0  0
  1  8  4  0
  1 12  4  0
  2  9  1  0
  2 11  4  0
  2 25  4  0
  3 12  4  0
  3 14  1  0
  3 23  4  0
  4 13  4  0
  4 21  4  0
  4 24  1  0
  5  6  1  0
  5  8  4  0
  5 23  4  0
  6 18  2  0
  7 15  4  0
  7 16  1  0
  7 27  4  0
  8 18  1  0
 10 18  1  0
 10 20  1  0
 11 15  4  0
 11 26  1  0
 13 22  4  0
 16 19  1  0
 16 20  2  0
 17 19  4  0
 17 21  4  0
 19 22  4  0
 20 28  1  0
 25 27  4  0
M  END
$$$$

 Created by Python create_sdf_string function

 28 30  0  0  0  0  0  0  0  0999 V2000
   11.4739   11.2739   18.7978 C   0  0  0  0  0  0  0  0  0  0  0  0
    3.4147    7.9151   20.3836 C   0  0  0  0  0  0  0  0  0  0  0  0
   13.5420   10.3406   19.3648 C   0  0  0  0  0  0  0  0  0  0  0  0
    9.6875    5.6468   22.7955 C   0  0  0  0  0  0  0  0  0  0  0  0
   11.7887   10.2498   20.8903 N   0  0  0  0  0  0  0  0  0  0  0  0
    8.9901   11.9189   19.8689 O   0  0  0  0  0  0  0  0  0  0  0  0
    6.0126    8.4597   21.1066 C   0  0  0  0  0  0  0  0  0  0  0  0
   11.0136   10.8804   20.0328 C   0  0  0  0  0  0  0  0  0  0  0  0
    2.1628    7.7545   20.0289 O   0  0  0  0  0  0  0  0  0  0  0  0
    9.1184   10.3931   21.3825 N   0  0  0  0  0  0  0  0  0  0  0  0
    3.9058    9.2124   20.3068 C   0  0  0  0  0  0  0  0  0  0  0  0
   12.7442   10.9780   18.4615 C   0  0  0  0  0  0  0  0  0  0  0  0
    9.3699    6.6743   23.6709 C   0  0  0  0  0  0  0  0  0  0  0  0
   14.7535   10.0689   19.0878 O   0  0  0  0  0  0  0  0  0  0  0  0
    5.1856    9.4790   20.7024 C   0  0  0  0  0  0  0  0  0  0  0  0
    7.3773    8.8282   21.4832 C   0  0  0  0  0  0  0  0  0  0  0  0
    8.4427    6.6511   21.0222 C   0  0  0  0  0  0  0  0  0  0  0  0
    9.6567   11.1329   20.4171 C   0  0  0  0  0  0  0  0  0  0  0  0
    8.1451    7.6866   21.9054 C   0  0  0  0  0  0  0  0  0  0  0  0
    7.7862   10.1320   21.5196 N   0  0  0  0  0  0  0  0  0  0  0  0
    9.2790    5.6200   21.4475 C   0  0  0  0  0  0  0  0  0  0  0  0
    8.6234    7.7325   23.1839 C   0  0  0  0  0  0  0  0  0  0  0  0
   13.0680    9.9761   20.5838 C   0  0  0  0  0  0  0  0  0  0  0  0
   10.3825    4.6579   23.2449 O   0  0  0  0  0  0  0  0  0  0  0  0
    4.1993    6.8589   20.8028 C   0  0  0  0  0  0  0  0  0  0  0  0
    3.0764   10.1204   19.8422 O   0  0  0  0  0  0  0  0  0  0  0  0
    5.4997    7.1341   21.1219 C   0  0  0  0  0  0  0  0  0  0  0  0
    7.0537   11.0239   22.0272 O   0  0  0  0  0  0  0  0  0  0  0  0
  1  8  4  0
  1 12  4  0
  2  9  1  0
  2 11  4  0
  2 25  4  0
  3 12  4  0
  3 14  1  0
  3 23  4  0
  4 13  4  0
  4 21  4  0
  4 24  1  0
  5  8  4  0
  5 23  4  0
  6 18  2  0
  7 15  4  0
  7 16  1  0
  7 27  4  0
  8 18  1  0
 10 18  1  0
 10 20  1  0
 11 15  4  0
 11 26  1  0
 13 22  4  0
 16 19  1  0
 16 20  2  0
 17 19  4  0
 17 21  4  0
 19 22  4  0
 20 28  1  0
 25 27  4  0
M  END
$$$$

 Created by Python create_sdf_string function

 28 30  0  0  0  0  0  0  0  0999 V2000
   11.4720   11.2716   18.7957 C   0  0  0  0  0  0  0  0  0  0  0  0
    3.4077    7.9166   20.3858 C   0  0  0  0  0  0  0  0  0  0  0  0
   13.5397   10.3462   19.3676 C   0  0  0  0  0  0  0  0  0  0  0  0
    9.6886    5.6469   22.7917 C   0  0  0  0  0  0  0  0  0  0  0  0
   11.7888   10.2564   20.8889 N   0  0  0  0  0  0  0  0  0  0  0  0
    8.9904   11.9202   19.8733 O   0  0  0  0  0  0  0  0  0  0  0  0
    6.0143    8.4510   21.1096 C   0  0  0  0  0  0  0  0  0  0  0  0
   11.0091   10.8797   20.0308 C   0  0  0  0  0  0  0  0  0  0  0  0
    2.1689    7.7559   20.0308 O   0  0  0  0  0  0  0  0  0  0  0  0
    9.1192   10.3926   21.3850 N   0  0  0  0  0  0  0  0  0  0  0  0
    3.9063    9.2145   20.3031 C   0  0  0  0  0  0  0  0  0  0  0  0
   12.7414   10.9797   18.4634 C   0  0  0  0  0  0  0  0  0  0  0  0
    9.3682    6.6733   23.6720 C   0  0  0  0  0  0  0  0  0  0  0  0
   14.7559   10.0627   19.0895 O   0  0  0  0  0  0  0  0  0  0  0  0
    5.1881    9.4826   20.7010 C   0  0  0  0  0  0  0  0  0  0  0  0
    7.3814    8.8246   21.4797 C   0  0  0  0  0  0  0  0  0  0  0  0
    8.4470    6.6487   21.0268 C   0  0  0  0  0  0  0  0  0  0  0  0
    9.6559   11.1267   20.4142 C   0  0  0  0  0  0  0  0  0  0  0  0
    8.1448    7.6883   21.9083 C   0  0  0  0  0  0  0  0  0  0  0  0
    7.7870   10.1368   21.5242 N   0  0  0  0  0  0  0  0  0  0  0  0
    9.2855    5.6244   21.4488 C   0  0  0  0  0  0  0  0  0  0  0  0
    8.6193    7.7340   23.1833 C   0  0  0  0  0  0  0  0  0  0  0  0
   13.0678    9.9747   20.5841 C   0  0  0  0  0  0  0  0  0  0  0  0
   10.3815    4.6573   23.2462 O   0  0  0  0  0  0  0  0  0  0  0  0
    4.2014    6.8603   20.8035 C   0  0  0  0  0  0  0  0  0  0  0  0
    3.0729   10.1249   19.8425 O   0  0  0  0  0  0  0  0  0  0  0  0
    5.5005    7.1314   21.1194 C   0  0  0  0  0  0  0  0  0  0  0  0
    7.0528   11.0225   22.0286 O   0  0  0  0  0  0  0  0  0  0  0  0
  1  8  4  0
  1 12  4  0
  2  9  1  0
  2 11  4  0
  2 25  4  0
  3 12  4  0
  3 14  1  0
  3 23  4  0
  4 13  4  0
  4 21  4  0
  4 24  1  0
  5  8  4  0
  5 23  4  0
  6 18  2  0
  7 15  4  0
  7 16  1  0
  7 27  4  0
  8 18  1  0
 10 18  1  0
 10 20  1  0
 11 15  4  0
 11 26  1  0
 13 22  4  0
 16 19  1  0
 16 20  2  0
 17 19  4  0
 17 21  4  0
 19 22  4  0
 20 28  1  0
 25 27  4  0
M  END
$$$$

 Created by Python create_sdf_string function

 28 30  0  0  0  0  0  0  0  0999 V2000
   11.4592   11.2893   18.7941 C   0  0  0  0  0  0  0  0  0  0  0  0
    3.4202    7.9009   20.3866 C   0  0  0  0  0  0  0  0  0  0  0  0
   13.5280   10.3522   19.3586 C   0  0  0  0  0  0  0  0  0  0  0  0
    9.6923    5.6468   22.7891 C   0  0  0  0  0  0  0  0  0  0  0  0
   11.7756   10.2554   20.8841 N   0  0  0  0  0  0  0  0  0  0  0  0
    8.9876   11.9370   19.8757 O   0  0  0  0  0  0  0  0  0  0  0  0
    6.0167    8.4478   21.1089 C   0  0  0  0  0  0  0  0  0  0  0  0
   11.0002   10.8890   20.0262 C   0  0  0  0  0  0  0  0  0  0  0  0
    2.1721    7.7393   20.0315 O   0  0  0  0  0  0  0  0  0  0  0  0
    9.1107   10.3880   21.3769 N   0  0  0  0  0  0  0  0  0  0  0  0
    3.9102    9.2008   20.3124 C   0  0  0  0  0  0  0  0  0  0  0  0
   12.7292   10.9960   18.4597 C   0  0  0  0  0  0  0  0  0  0  0  0
    9.3798    6.6793   23.6625 C   0  0  0  0  0  0  0  0  0  0  0  0
   14.7425   10.0739   19.0802 O   0  0  0  0  0  0  0  0  0  0  0  0
    5.1894    9.4673   20.7118 C   0  0  0  0  0  0  0  0  0  0  0  0
    7.3773    8.8224   21.4870 C   0  0  0  0  0  0  0  0  0  0  0  0
    8.4391    6.6439   21.0235 C   0  0  0  0  0  0  0  0  0  0  0  0
    9.6494   11.1353   20.4167 C   0  0  0  0  0  0  0  0  0  0  0  0
    8.1431    7.6829   21.9046 C   0  0  0  0  0  0  0  0  0  0  0  0
    7.7796   10.1314   21.5115 N   0  0  0  0  0  0  0  0  0  0  0  0
    9.2768    5.6183   21.4437 C   0  0  0  0  0  0  0  0  0  0  0  0
    8.6315    7.7322   23.1768 C   0  0  0  0  0  0  0  0  0  0  0  0
   13.0537    9.9821   20.5781 C   0  0  0  0  0  0  0  0  0  0  0  0
   10.3850    4.6575   23.2386 O   0  0  0  0  0  0  0  0  0  0  0  0
    4.2069    6.8450   20.7994 C   0  0  0  0  0  0  0  0  0  0  0  0
    3.0726   10.1043   19.8522 O   0  0  0  0  0  0  0  0  0  0  0  0
    5.5057    7.1196   21.1155 C   0  0  0  0  0  0  0  0  0  0  0  0
    7.0367   11.0229   21.9948 O   0  0  0  0  0  0  0  0  0  0  0  0
  1  8  4  0
  1 12  4  0
  2  9  1  0
  2 11  4  0
  2 25  4  0
  3 12  4  0
  3 14  1  0
  3 23  4  0
  4 13  4  0
  4 21  4  0
  4 24  1  0
  5  8  4  0
  5 23  4  0
  6 18  2  0
  7 15  4  0
  7 16  1  0
  7 27  4  0
  8 18  1  0
 10 18  1  0
 10 20  1  0
 11 15  4  0
 11 26  1  0
 13 22  4  0
 16 19  1  0
 16 20  2  0
 17 19  4  0
 17 21  4  0
 19 22  4  0
 20 28  1  0
 25 27  4  0
M  END
$$$$

 Created by Python create_sdf_string function

 28 30  0  0  0  0  0  0  0  0999 V2000
   11.4592   11.2893   18.7941 C   0  0  0  0  0  0  0  0  0  0  0  0
    3.4202    7.9009   20.3866 C   0  0  0  0  0  0  0  0  0  0  0  0
   13.5280   10.3522   19.3586 C   0  0  0  0  0  0  0  0  0  0  0  0
    9.6923    5.6468   22.7891 C   0  0  0  0  0  0  0  0  0  0  0  0
   11.7756   10.2554   20.8841 N   0  0  0  0  0  0  0  0  0  0  0  0
    8.9876   11.9370   19.8757 O   0  0  0  0  0  0  0  0  0  0  0  0
    6.0167    8.4478   21.1089 C   0  0  0  0  0  0  0  0  0  0  0  0
   11.0002   10.8890   20.0262 C   0  0  0  0  0  0  0  0  0  0  0  0
    2.1721    7.7393   20.0315 O   0  0  0  0  0  0  0  0  0  0  0  0
    9.1107   10.3880   21.3769 N   0  0  0  0  0  0  0  0  0  0  0  0
    3.9102    9.2008   20.3124 C   0  0  0  0  0  0  0  0  0  0  0  0
   12.7292   10.9960   18.4597 C   0  0  0  0  0  0  0  0  0  0  0  0
    9.3798    6.6793   23.6625 C   0  0  0  0  0  0  0  0  0  0  0  0
   14.7425   10.0739   19.0802 O   0  0  0  0  0  0  0  0  0  0  0  0
    5.1894    9.4673   20.7118 C   0  0  0  0  0  0  0  0  0  0  0  0
    7.3773    8.8224   21.4870 C   0  0  0  0  0  0  0  0  0  0  0  0
    8.4391    6.6439   21.0235 C   0  0  0  0  0  0  0  0  0  0  0  0
    9.6494   11.1353   20.4167 C   0  0  0  0  0  0  0  0  0  0  0  0
    8.1431    7.6829   21.9046 C   0  0  0  0  0  0  0  0  0  0  0  0
    7.7796   10.1314   21.5115 N   0  0  0  0  0  0  0  0  0  0  0  0
    9.2768    5.6183   21.4437 C   0  0  0  0  0  0  0  0  0  0  0  0
    8.6315    7.7322   23.1768 C   0  0  0  0  0  0  0  0  0  0  0  0
   13.0537    9.9821   20.5781 C   0  0  0  0  0  0  0  0  0  0  0  0
   10.3850    4.6575   23.2386 O   0  0  0  0  0  0  0  0  0  0  0  0
    4.2069    6.8450   20.7994 C   0  0  0  0  0  0  0  0  0  0  0  0
    3.0726   10.1043   19.8522 O   0  0  0  0  0  0  0  0  0  0  0  0
    5.5057    7.1196   21.1155 C   0  0  0  0  0  0  0  0  0  0  0  0
    7.0367   11.0229   21.9948 O   0  0  0  0  0  0  0  0  0  0  0  0
  1  8  4  0
  1 12  4  0
  2  9  1  0
  2 11  4  0
  2 25  4  0
  3 12  4  0
  3 14  1  0
  3 23  4  0
  4 13  4  0
  4 21  4  0
  4 24  1  0
  5  8  4  0
  5 23  4  0
  6 18  2  0
  7 15  4  0
  7 16  1  0
  7 27  4  0
  8 18  1  0
 10 18  1  0
 10 20  1  0
 11 15  4  0
 11 26  1  0
 13 22  4  0
 16 19  1  0
 16 20  2  0
 17 19  4  0
 17 21  4  0
 19 22  4  0
 20 28  1  0
 25 27  4  0
M  END
$$$$

 Created by Python create_sdf_string function

 28 30  0  0  0  0  0  0  0  0999 V2000
   11.4592   11.2893   18.7941 C   0  0  0  0  0  0  0  0  0  0  0  0
    3.4202    7.9009   20.3866 C   0  0  0  0  0  0  0  0  0  0  0  0
   13.5280   10.3522   19.3586 C   0  0  0  0  0  0  0  0  0  0  0  0
    9.6923    5.6468   22.7891 C   0  0  0  0  0  0  0  0  0  0  0  0
   11.7756   10.2554   20.8841 N   0  0  0  0  0  0  0  0  0  0  0  0
    8.9876   11.9370   19.8757 O   0  0  0  0  0  0  0  0  0  0  0  0
    6.0167    8.4478   21.1089 C   0  0  0  0  0  0  0  0  0  0  0  0
   11.0002   10.8890   20.0262 C   0  0  0  0  0  0  0  0  0  0  0  0
    2.1721    7.7393   20.0315 O   0  0  0  0  0  0  0  0  0  0  0  0
    9.1107   10.3880   21.3769 N   0  0  0  0  0  0  0  0  0  0  0  0
    3.9102    9.2008   20.3124 C   0  0  0  0  0  0  0  0  0  0  0  0
   12.7292   10.9960   18.4597 C   0  0  0  0  0  0  0  0  0  0  0  0
    9.3798    6.6793   23.6625 C   0  0  0  0  0  0  0  0  0  0  0  0
   14.7425   10.0739   19.0802 O   0  0  0  0  0  0  0  0  0  0  0  0
    5.1894    9.4673   20.7118 C   0  0  0  0  0  0  0  0  0  0  0  0
    7.3773    8.8224   21.4870 C   0  0  0  0  0  0  0  0  0  0  0  0
    8.4391    6.6439   21.0235 C   0  0  0  0  0  0  0  0  0  0  0  0
    9.6494   11.1353   20.4167 C   0  0  0  0  0  0  0  0  0  0  0  0
    8.1431    7.6829   21.9046 C   0  0  0  0  0  0  0  0  0  0  0  0
    7.7796   10.1314   21.5115 N   0  0  0  0  0  0  0  0  0  0  0  0
    9.2768    5.6183   21.4437 C   0  0  0  0  0  0  0  0  0  0  0  0
    8.6315    7.7322   23.1768 C   0  0  0  0  0  0  0  0  0  0  0  0
   13.0537    9.9821   20.5781 C   0  0  0  0  0  0  0  0  0  0  0  0
   10.3850    4.6575   23.2386 O   0  0  0  0  0  0  0  0  0  0  0  0
    4.2069    6.8450   20.7994 C   0  0  0  0  0  0  0  0  0  0  0  0
    3.0726   10.1043   19.8522 O   0  0  0  0  0  0  0  0  0  0  0  0
    5.5057    7.1196   21.1155 C   0  0  0  0  0  0  0  0  0  0  0  0
    7.0367   11.0229   21.9948 O   0  0  0  0  0  0  0  0  0  0  0  0
  1  8  4  0
  1 12  4  0
  2  9  1  0
  2 11  4  0
  2 25  4  0
  3 12  4  0
  3 14  1  0
  3 23  4  0
  4 13  4  0
  4 21  4  0
  4 24  1  0
  5  8  4  0
  5 23  4  0
  6 18  2  0
  7 15  4  0
  7 16  1  0
  7 27  4  0
  8 18  1  0
 10 18  1  0
 10 20  1  0
 11 15  4  0
 11 26  1  0
 13 22  4  0
 16 19  1  0
 16 20  2  0
 17 19  4  0
 17 21  4  0
 19 22  4  0
 20 28  1  0
 25 27  4  0
M  END
$$$$

 Created by Python create_sdf_string function

 28 30  0  0  0  0  0  0  0  0999 V2000
   11.4592   11.2893   18.7941 C   0  0  0  0  0  0  0  0  0  0  0  0
    3.4202    7.9009   20.3866 C   0  0  0  0  0  0  0  0  0  0  0  0
   13.5280   10.3522   19.3586 C   0  0  0  0  0  0  0  0  0  0  0  0
    9.6923    5.6468   22.7891 C   0  0  0  0  0  0  0  0  0  0  0  0
   11.7756   10.2554   20.8841 N   0  0  0  0  0  0  0  0  0  0  0  0
    8.9876   11.9370   19.8757 O   0  0  0  0  0  0  0  0  0  0  0  0
    6.0167    8.4478   21.1089 C   0  0  0  0  0  0  0  0  0  0  0  0
   11.0002   10.8890   20.0262 C   0  0  0  0  0  0  0  0  0  0  0  0
    2.1721    7.7393   20.0315 O   0  0  0  0  0  0  0  0  0  0  0  0
    9.1107   10.3880   21.3769 N   0  0  0  0  0  0  0  0  0  0  0  0
    3.9102    9.2008   20.3124 C   0  0  0  0  0  0  0  0  0  0  0  0
   12.7292   10.9960   18.4597 C   0  0  0  0  0  0  0  0  0  0  0  0
    9.3798    6.6793   23.6625 C   0  0  0  0  0  0  0  0  0  0  0  0
   14.7425   10.0739   19.0802 O   0  0  0  0  0  0  0  0  0  0  0  0
    5.1894    9.4673   20.7118 C   0  0  0  0  0  0  0  0  0  0  0  0
    7.3773    8.8224   21.4870 C   0  0  0  0  0  0  0  0  0  0  0  0
    8.4391    6.6439   21.0235 C   0  0  0  0  0  0  0  0  0  0  0  0
    9.6494   11.1353   20.4167 C   0  0  0  0  0  0  0  0  0  0  0  0
    8.1431    7.6829   21.9046 C   0  0  0  0  0  0  0  0  0  0  0  0
    7.7796   10.1314   21.5115 N   0  0  0  0  0  0  0  0  0  0  0  0
    9.2768    5.6183   21.4437 C   0  0  0  0  0  0  0  0  0  0  0  0
    8.6315    7.7322   23.1768 C   0  0  0  0  0  0  0  0  0  0  0  0
   13.0537    9.9821   20.5781 C   0  0  0  0  0  0  0  0  0  0  0  0
   10.3850    4.6575   23.2386 O   0  0  0  0  0  0  0  0  0  0  0  0
    4.2069    6.8450   20.7994 C   0  0  0  0  0  0  0  0  0  0  0  0
    3.0726   10.1043   19.8522 O   0  0  0  0  0  0  0  0  0  0  0  0
    5.5057    7.1196   21.1155 C   0  0  0  0  0  0  0  0  0  0  0  0
    7.0367   11.0229   21.9948 O   0  0  0  0  0  0  0  0  0  0  0  0
  1  8  4  0
  1 12  4  0
  2  9  1  0
  2 11  4  0
  2 25  4  0
  3 12  4  0
  3 14  1  0
  3 23  4  0
  4 13  4  0
  4 21  4  0
  4 24  1  0
  5  8  4  0
  5 23  4  0
  6 18  2  0
  7 15  4  0
  7 16  1  0
  7 27  4  0
  8 18  1  0
 10 18  1  0
 10 20  1  0
 11 15  4  0
 11 26  1  0
 13 22  4  0
 16 19  1  0
 16 20  2  0
 17 19  4  0
 17 21  4  0
 19 22  4  0
 20 28  1  0
 25 27  4  0
M  END
$$$$

 Created by Python create_sdf_string function

 28 30  0  0  0  0  0  0  0  0999 V2000
   11.4592   11.2893   18.7941 C   0  0  0  0  0  0  0  0  0  0  0  0
    3.4202    7.9009   20.3866 C   0  0  0  0  0  0  0  0  0  0  0  0
   13.5280   10.3522   19.3586 C   0  0  0  0  0  0  0  0  0  0  0  0
    9.6923    5.6468   22.7891 C   0  0  0  0  0  0  0  0  0  0  0  0
   11.7756   10.2554   20.8841 N   0  0  0  0  0  0  0  0  0  0  0  0
    8.9876   11.9370   19.8757 O   0  0  0  0  0  0  0  0  0  0  0  0
    6.0167    8.4478   21.1089 C   0  0  0  0  0  0  0  0  0  0  0  0
   11.0002   10.8890   20.0262 C   0  0  0  0  0  0  0  0  0  0  0  0
    2.1721    7.7393   20.0315 O   0  0  0  0  0  0  0  0  0  0  0  0
    9.1107   10.3880   21.3769 N   0  0  0  0  0  0  0  0  0  0  0  0
    3.9102    9.2008   20.3124 C   0  0  0  0  0  0  0  0  0  0  0  0
   12.7292   10.9960   18.4597 C   0  0  0  0  0  0  0  0  0  0  0  0
    9.3798    6.6793   23.6625 C   0  0  0  0  0  0  0  0  0  0  0  0
   14.7425   10.0739   19.0802 O   0  0  0  0  0  0  0  0  0  0  0  0
    5.1894    9.4673   20.7118 C   0  0  0  0  0  0  0  0  0  0  0  0
    7.3773    8.8224   21.4870 C   0  0  0  0  0  0  0  0  0  0  0  0
    8.4391    6.6439   21.0235 C   0  0  0  0  0  0  0  0  0  0  0  0
    9.6494   11.1353   20.4167 C   0  0  0  0  0  0  0  0  0  0  0  0
    8.1431    7.6829   21.9046 C   0  0  0  0  0  0  0  0  0  0  0  0
    7.7796   10.1314   21.5115 N   0  0  0  0  0  0  0  0  0  0  0  0
    9.2768    5.6183   21.4437 C   0  0  0  0  0  0  0  0  0  0  0  0
    8.6315    7.7322   23.1768 C   0  0  0  0  0  0  0  0  0  0  0  0
   13.0537    9.9821   20.5781 C   0  0  0  0  0  0  0  0  0  0  0  0
   10.3850    4.6575   23.2386 O   0  0  0  0  0  0  0  0  0  0  0  0
    4.2069    6.8450   20.7994 C   0  0  0  0  0  0  0  0  0  0  0  0
    3.0726   10.1043   19.8522 O   0  0  0  0  0  0  0  0  0  0  0  0
    5.5057    7.1196   21.1155 C   0  0  0  0  0  0  0  0  0  0  0  0
    7.0367   11.0229   21.9948 O   0  0  0  0  0  0  0  0  0  0  0  0
  1  8  4  0
  1 12  4  0
  2  9  1  0
  2 11  4  0
  2 25  4  0
  3 12  4  0
  3 14  1  0
  3 23  4  0
  4 13  4  0
  4 21  4  0
  4 24  1  0
  5  8  4  0
  5 23  4  0
  6 18  2  0
  7 15  4  0
  7 16  1  0
  7 27  4  0
  8 18  1  0
 10 18  1  0
 10 20  1  0
 11 15  4  0
 11 26  1  0
 13 22  4  0
 16 19  1  0
 16 20  2  0
 17 19  4  0
 17 21  4  0
 19 22  4  0
 20 28  1  0
 25 27  4  0
M  END
$$$$

 Created by Python create_sdf_string function

 28 30  0  0  0  0  0  0  0  0999 V2000
   11.4592   11.2893   18.7941 C   0  0  0  0  0  0  0  0  0  0  0  0
    3.4202    7.9009   20.3866 C   0  0  0  0  0  0  0  0  0  0  0  0
   13.5280   10.3522   19.3586 C   0  0  0  0  0  0  0  0  0  0  0  0
    9.6923    5.6468   22.7891 C   0  0  0  0  0  0  0  0  0  0  0  0
   11.7756   10.2554   20.8841 N   0  0  0  0  0  0  0  0  0  0  0  0
    8.9876   11.9370   19.8757 O   0  0  0  0  0  0  0  0  0  0  0  0
    6.0167    8.4478   21.1089 C   0  0  0  0  0  0  0  0  0  0  0  0
   11.0002   10.8890   20.0262 C   0  0  0  0  0  0  0  0  0  0  0  0
    2.1721    7.7393   20.0315 O   0  0  0  0  0  0  0  0  0  0  0  0
    9.1107   10.3880   21.3769 N   0  0  0  0  0  0  0  0  0  0  0  0
    3.9102    9.2008   20.3124 C   0  0  0  0  0  0  0  0  0  0  0  0
   12.7292   10.9960   18.4597 C   0  0  0  0  0  0  0  0  0  0  0  0
    9.3798    6.6793   23.6625 C   0  0  0  0  0  0  0  0  0  0  0  0
   14.7425   10.0739   19.0802 O   0  0  0  0  0  0  0  0  0  0  0  0
    5.1894    9.4673   20.7118 C   0  0  0  0  0  0  0  0  0  0  0  0
    7.3773    8.8224   21.4870 C   0  0  0  0  0  0  0  0  0  0  0  0
    8.4391    6.6439   21.0235 C   0  0  0  0  0  0  0  0  0  0  0  0
    9.6494   11.1353   20.4167 C   0  0  0  0  0  0  0  0  0  0  0  0
    8.1431    7.6829   21.9046 C   0  0  0  0  0  0  0  0  0  0  0  0
    7.7796   10.1314   21.5115 N   0  0  0  0  0  0  0  0  0  0  0  0
    9.2768    5.6183   21.4437 C   0  0  0  0  0  0  0  0  0  0  0  0
    8.6315    7.7322   23.1768 C   0  0  0  0  0  0  0  0  0  0  0  0
   13.0537    9.9821   20.5781 C   0  0  0  0  0  0  0  0  0  0  0  0
   10.3850    4.6575   23.2386 O   0  0  0  0  0  0  0  0  0  0  0  0
    4.2069    6.8450   20.7994 C   0  0  0  0  0  0  0  0  0  0  0  0
    3.0726   10.1043   19.8522 O   0  0  0  0  0  0  0  0  0  0  0  0
    5.5057    7.1196   21.1155 C   0  0  0  0  0  0  0  0  0  0  0  0
    7.0367   11.0229   21.9948 O   0  0  0  0  0  0  0  0  0  0  0  0
  1  8  4  0
  1 12  4  0
  2  9  1  0
  2 11  4  0
  2 25  4  0
  3 12  4  0
  3 14  1  0
  3 23  4  0
  4 13  4  0
  4 21  4  0
  4 24  1  0
  5  8  4  0
  5 23  4  0
  6 18  2  0
  7 15  4  0
  7 16  1  0
  7 27  4  0
  8 18  1  0
 10 18  1  0
 10 20  1  0
 11 15  4  0
 11 26  1  0
 13 22  4  0
 16 19  1  0
 16 20  2  0
 17 19  4  0
 17 21  4  0
 19 22  4  0
 20 28  1  0
 25 27  4  0
M  END
$$$$

 Created by Python create_sdf_string function

 28 30  0  0  0  0  0  0  0  0999 V2000
   11.4592   11.2893   18.7941 C   0  0  0  0  0  0  0  0  0  0  0  0
    3.4202    7.9009   20.3866 C   0  0  0  0  0  0  0  0  0  0  0  0
   13.5280   10.3522   19.3586 C   0  0  0  0  0  0  0  0  0  0  0  0
    9.6923    5.6468   22.7891 C   0  0  0  0  0  0  0  0  0  0  0  0
   11.7756   10.2554   20.8841 N   0  0  0  0  0  0  0  0  0  0  0  0
    8.9876   11.9370   19.8757 O   0  0  0  0  0  0  0  0  0  0  0  0
    6.0167    8.4478   21.1089 C   0  0  0  0  0  0  0  0  0  0  0  0
   11.0002   10.8890   20.0262 C   0  0  0  0  0  0  0  0  0  0  0  0
    2.1721    7.7393   20.0315 O   0  0  0  0  0  0  0  0  0  0  0  0
    9.1107   10.3880   21.3769 N   0  0  0  0  0  0  0  0  0  0  0  0
    3.9102    9.2008   20.3124 C   0  0  0  0  0  0  0  0  0  0  0  0
   12.7292   10.9960   18.4597 C   0  0  0  0  0  0  0  0  0  0  0  0
    9.3798    6.6793   23.6625 C   0  0  0  0  0  0  0  0  0  0  0  0
   14.7425   10.0739   19.0802 O   0  0  0  0  0  0  0  0  0  0  0  0
    5.1894    9.4673   20.7118 C   0  0  0  0  0  0  0  0  0  0  0  0
    7.3773    8.8224   21.4870 C   0  0  0  0  0  0  0  0  0  0  0  0
    8.4391    6.6439   21.0235 C   0  0  0  0  0  0  0  0  0  0  0  0
    9.6494   11.1353   20.4167 C   0  0  0  0  0  0  0  0  0  0  0  0
    8.1431    7.6829   21.9046 C   0  0  0  0  0  0  0  0  0  0  0  0
    7.7796   10.1314   21.5115 N   0  0  0  0  0  0  0  0  0  0  0  0
    9.2768    5.6183   21.4437 C   0  0  0  0  0  0  0  0  0  0  0  0
    8.6315    7.7322   23.1768 C   0  0  0  0  0  0  0  0  0  0  0  0
   13.0537    9.9821   20.5781 C   0  0  0  0  0  0  0  0  0  0  0  0
   10.3850    4.6575   23.2386 O   0  0  0  0  0  0  0  0  0  0  0  0
    4.2069    6.8450   20.7994 C   0  0  0  0  0  0  0  0  0  0  0  0
    3.0726   10.1043   19.8522 O   0  0  0  0  0  0  0  0  0  0  0  0
    5.5057    7.1196   21.1155 C   0  0  0  0  0  0  0  0  0  0  0  0
    7.0367   11.0229   21.9948 O   0  0  0  0  0  0  0  0  0  0  0  0
  1  8  4  0
  1 12  4  0
  2  9  1  0
  2 11  4  0
  2 25  4  0
  3 12  4  0
  3 14  1  0
  3 23  4  0
  4 13  4  0
  4 21  4  0
  4 24  1  0
  5  8  4  0
  5 23  4  0
  6 18  2  0
  7 15  4  0
  7 16  1  0
  7 27  4  0
  8 18  1  0
 10 18  1  0
 10 20  1  0
 11 15  4  0
 11 26  1  0
 13 22  4  0
 16 19  1  0
 16 20  2  0
 17 19  4  0
 17 21  4  0
 19 22  4  0
 20 28  1  0
 25 27  4  0
M  END
$$$$

 Created by Python create_sdf_string function

 28 30  0  0  0  0  0  0  0  0999 V2000
   11.4592   11.2893   18.7941 C   0  0  0  0  0  0  0  0  0  0  0  0
    3.4202    7.9009   20.3866 C   0  0  0  0  0  0  0  0  0  0  0  0
   13.5280   10.3522   19.3586 C   0  0  0  0  0  0  0  0  0  0  0  0
    9.6923    5.6468   22.7891 C   0  0  0  0  0  0  0  0  0  0  0  0
   11.7756   10.2554   20.8841 N   0  0  0  0  0  0  0  0  0  0  0  0
    8.9876   11.9370   19.8757 O   0  0  0  0  0  0  0  0  0  0  0  0
    6.0167    8.4478   21.1089 C   0  0  0  0  0  0  0  0  0  0  0  0
   11.0002   10.8890   20.0262 C   0  0  0  0  0  0  0  0  0  0  0  0
    2.1721    7.7393   20.0315 O   0  0  0  0  0  0  0  0  0  0  0  0
    9.1107   10.3880   21.3769 N   0  0  0  0  0  0  0  0  0  0  0  0
    3.9102    9.2008   20.3124 C   0  0  0  0  0  0  0  0  0  0  0  0
   12.7292   10.9960   18.4597 C   0  0  0  0  0  0  0  0  0  0  0  0
    9.3798    6.6793   23.6625 C   0  0  0  0  0  0  0  0  0  0  0  0
   14.7425   10.0739   19.0802 O   0  0  0  0  0  0  0  0  0  0  0  0
    5.1894    9.4673   20.7118 C   0  0  0  0  0  0  0  0  0  0  0  0
    7.3773    8.8224   21.4870 C   0  0  0  0  0  0  0  0  0  0  0  0
    8.4391    6.6439   21.0235 C   0  0  0  0  0  0  0  0  0  0  0  0
    9.6494   11.1353   20.4167 C   0  0  0  0  0  0  0  0  0  0  0  0
    8.1431    7.6829   21.9046 C   0  0  0  0  0  0  0  0  0  0  0  0
    7.7796   10.1314   21.5115 N   0  0  0  0  0  0  0  0  0  0  0  0
    9.2768    5.6183   21.4437 C   0  0  0  0  0  0  0  0  0  0  0  0
    8.6315    7.7322   23.1768 C   0  0  0  0  0  0  0  0  0  0  0  0
   13.0537    9.9821   20.5781 C   0  0  0  0  0  0  0  0  0  0  0  0
   10.3850    4.6575   23.2386 O   0  0  0  0  0  0  0  0  0  0  0  0
    4.2069    6.8450   20.7994 C   0  0  0  0  0  0  0  0  0  0  0  0
    3.0726   10.1043   19.8522 O   0  0  0  0  0  0  0  0  0  0  0  0
    5.5057    7.1196   21.1155 C   0  0  0  0  0  0  0  0  0  0  0  0
    7.0367   11.0229   21.9948 O   0  0  0  0  0  0  0  0  0  0  0  0
  1  8  4  0
  1 12  4  0
  2  9  1  0
  2 11  4  0
  2 25  4  0
  3 12  4  0
  3 14  1  0
  3 23  4  0
  4 13  4  0
  4 21  4  0
  4 24  1  0
  5  8  4  0
  5 23  4  0
  6 18  2  0
  7 15  4  0
  7 16  1  0
  7 27  4  0
  8 18  1  0
 10 18  1  0
 10 20  1  0
 11 15  4  0
 11 26  1  0
 13 22  4  0
 16 19  1  0
 16 20  2  0
 17 19  4  0
 17 21  4  0
 19 22  4  0
 20 28  1  0
 25 27  4  0
M  END
$$$$

 Created by Python create_sdf_string function

 28 30  0  0  0  0  0  0  0  0999 V2000
   11.4592   11.2893   18.7941 C   0  0  0  0  0  0  0  0  0  0  0  0
    3.4202    7.9009   20.3866 C   0  0  0  0  0  0  0  0  0  0  0  0
   13.5280   10.3522   19.3586 C   0  0  0  0  0  0  0  0  0  0  0  0
    9.6923    5.6468   22.7891 C   0  0  0  0  0  0  0  0  0  0  0  0
   11.7756   10.2554   20.8841 N   0  0  0  0  0  0  0  0  0  0  0  0
    8.9876   11.9370   19.8757 O   0  0  0  0  0  0  0  0  0  0  0  0
    6.0167    8.4478   21.1089 C   0  0  0  0  0  0  0  0  0  0  0  0
   11.0002   10.8890   20.0262 C   0  0  0  0  0  0  0  0  0  0  0  0
    2.1721    7.7393   20.0315 O   0  0  0  0  0  0  0  0  0  0  0  0
    9.1107   10.3880   21.3769 N   0  0  0  0  0  0  0  0  0  0  0  0
    3.9102    9.2008   20.3124 C   0  0  0  0  0  0  0  0  0  0  0  0
   12.7292   10.9960   18.4597 C   0  0  0  0  0  0  0  0  0  0  0  0
    9.3798    6.6793   23.6625 C   0  0  0  0  0  0  0  0  0  0  0  0
   14.7425   10.0739   19.0802 O   0  0  0  0  0  0  0  0  0  0  0  0
    5.1894    9.4673   20.7118 C   0  0  0  0  0  0  0  0  0  0  0  0
    7.3773    8.8224   21.4870 C   0  0  0  0  0  0  0  0  0  0  0  0
    8.4391    6.6439   21.0235 C   0  0  0  0  0  0  0  0  0  0  0  0
    9.6494   11.1353   20.4167 C   0  0  0  0  0  0  0  0  0  0  0  0
    8.1431    7.6829   21.9046 C   0  0  0  0  0  0  0  0  0  0  0  0
    7.7796   10.1314   21.5115 N   0  0  0  0  0  0  0  0  0  0  0  0
    9.2768    5.6183   21.4437 C   0  0  0  0  0  0  0  0  0  0  0  0
    8.6315    7.7322   23.1768 C   0  0  0  0  0  0  0  0  0  0  0  0
   13.0537    9.9821   20.5781 C   0  0  0  0  0  0  0  0  0  0  0  0
   10.3850    4.6575   23.2386 O   0  0  0  0  0  0  0  0  0  0  0  0
    4.2069    6.8450   20.7994 C   0  0  0  0  0  0  0  0  0  0  0  0
    3.0726   10.1043   19.8522 O   0  0  0  0  0  0  0  0  0  0  0  0
    5.5057    7.1196   21.1155 C   0  0  0  0  0  0  0  0  0  0  0  0
    7.0367   11.0229   21.9948 O   0  0  0  0  0  0  0  0  0  0  0  0
  1  8  4  0
  1 12  4  0
  2  9  1  0
  2 11  4  0
  2 25  4  0
  3 12  4  0
  3 14  1  0
  3 23  4  0
  4 13  4  0
  4 21  4  0
  4 24  1  0
  5  8  4  0
  5 23  4  0
  6 18  2  0
  7 15  4  0
  7 16  1  0
  7 27  4  0
  8 18  1  0
 10 18  1  0
 10 20  1  0
 11 15  4  0
 11 26  1  0
 13 22  4  0
 16 19  1  0
 16 20  2  0
 17 19  4  0
 17 21  4  0
 19 22  4  0
 20 28  1  0
 25 27  4  0
M  END
$$$$

 Created by Python create_sdf_string function

 28 30  0  0  0  0  0  0  0  0999 V2000
   11.4592   11.2893   18.7941 C   0  0  0  0  0  0  0  0  0  0  0  0
    3.4202    7.9009   20.3866 C   0  0  0  0  0  0  0  0  0  0  0  0
   13.5280   10.3522   19.3586 C   0  0  0  0  0  0  0  0  0  0  0  0
    9.6923    5.6468   22.7891 C   0  0  0  0  0  0  0  0  0  0  0  0
   11.7756   10.2554   20.8841 N   0  0  0  0  0  0  0  0  0  0  0  0
    8.9876   11.9370   19.8757 O   0  0  0  0  0  0  0  0  0  0  0  0
    6.0167    8.4478   21.1089 C   0  0  0  0  0  0  0  0  0  0  0  0
   11.0002   10.8890   20.0262 C   0  0  0  0  0  0  0  0  0  0  0  0
    2.1721    7.7393   20.0315 O   0  0  0  0  0  0  0  0  0  0  0  0
    9.1107   10.3880   21.3769 N   0  0  0  0  0  0  0  0  0  0  0  0
    3.9102    9.2008   20.3124 C   0  0  0  0  0  0  0  0  0  0  0  0
   12.7292   10.9960   18.4597 C   0  0  0  0  0  0  0  0  0  0  0  0
    9.3798    6.6793   23.6625 C   0  0  0  0  0  0  0  0  0  0  0  0
   14.7425   10.0739   19.0802 O   0  0  0  0  0  0  0  0  0  0  0  0
    5.1894    9.4673   20.7118 C   0  0  0  0  0  0  0  0  0  0  0  0
    7.3773    8.8224   21.4870 C   0  0  0  0  0  0  0  0  0  0  0  0
    8.4391    6.6439   21.0235 C   0  0  0  0  0  0  0  0  0  0  0  0
    9.6494   11.1353   20.4167 C   0  0  0  0  0  0  0  0  0  0  0  0
    8.1431    7.6829   21.9046 C   0  0  0  0  0  0  0  0  0  0  0  0
    7.7796   10.1314   21.5115 N   0  0  0  0  0  0  0  0  0  0  0  0
    9.2768    5.6183   21.4437 C   0  0  0  0  0  0  0  0  0  0  0  0
    8.6315    7.7322   23.1768 C   0  0  0  0  0  0  0  0  0  0  0  0
   13.0537    9.9821   20.5781 C   0  0  0  0  0  0  0  0  0  0  0  0
   10.3850    4.6575   23.2386 O   0  0  0  0  0  0  0  0  0  0  0  0
    4.2069    6.8450   20.7994 C   0  0  0  0  0  0  0  0  0  0  0  0
    3.0726   10.1043   19.8522 O   0  0  0  0  0  0  0  0  0  0  0  0
    5.5057    7.1196   21.1155 C   0  0  0  0  0  0  0  0  0  0  0  0
    7.0367   11.0229   21.9948 O   0  0  0  0  0  0  0  0  0  0  0  0
  1  8  4  0
  1 12  4  0
  2  9  1  0
  2 11  4  0
  2 25  4  0
  3 12  4  0
  3 14  1  0
  3 23  4  0
  4 13  4  0
  4 21  4  0
  4 24  1  0
  5  8  4  0
  5 23  4  0
  6 18  2  0
  7 15  4  0
  7 16  1  0
  7 27  4  0
  8 18  1  0
 10 18  1  0
 10 20  1  0
 11 15  4  0
 11 26  1  0
 13 22  4  0
 16 19  1  0
 16 20  2  0
 17 19  4  0
 17 21  4  0
 19 22  4  0
 20 28  1  0
 25 27  4  0
M  END
$$$$

 Created by Python create_sdf_string function

 28 30  0  0  0  0  0  0  0  0999 V2000
   11.4592   11.2893   18.7941 C   0  0  0  0  0  0  0  0  0  0  0  0
    3.4202    7.9009   20.3866 C   0  0  0  0  0  0  0  0  0  0  0  0
   13.5280   10.3522   19.3586 C   0  0  0  0  0  0  0  0  0  0  0  0
    9.6923    5.6468   22.7891 C   0  0  0  0  0  0  0  0  0  0  0  0
   11.7756   10.2554   20.8841 N   0  0  0  0  0  0  0  0  0  0  0  0
    8.9876   11.9370   19.8757 O   0  0  0  0  0  0  0  0  0  0  0  0
    6.0167    8.4478   21.1089 C   0  0  0  0  0  0  0  0  0  0  0  0
   11.0002   10.8890   20.0262 C   0  0  0  0  0  0  0  0  0  0  0  0
    2.1721    7.7393   20.0315 O   0  0  0  0  0  0  0  0  0  0  0  0
    9.1107   10.3880   21.3769 N   0  0  0  0  0  0  0  0  0  0  0  0
    3.9102    9.2008   20.3124 C   0  0  0  0  0  0  0  0  0  0  0  0
   12.7292   10.9960   18.4597 C   0  0  0  0  0  0  0  0  0  0  0  0
    9.3798    6.6793   23.6625 C   0  0  0  0  0  0  0  0  0  0  0  0
   14.7425   10.0739   19.0802 O   0  0  0  0  0  0  0  0  0  0  0  0
    5.1894    9.4673   20.7118 C   0  0  0  0  0  0  0  0  0  0  0  0
    7.3773    8.8224   21.4870 C   0  0  0  0  0  0  0  0  0  0  0  0
    8.4391    6.6439   21.0235 C   0  0  0  0  0  0  0  0  0  0  0  0
    9.6494   11.1353   20.4167 C   0  0  0  0  0  0  0  0  0  0  0  0
    8.1431    7.6829   21.9046 C   0  0  0  0  0  0  0  0  0  0  0  0
    7.7796   10.1314   21.5115 N   0  0  0  0  0  0  0  0  0  0  0  0
    9.2768    5.6183   21.4437 C   0  0  0  0  0  0  0  0  0  0  0  0
    8.6315    7.7322   23.1768 C   0  0  0  0  0  0  0  0  0  0  0  0
   13.0537    9.9821   20.5781 C   0  0  0  0  0  0  0  0  0  0  0  0
   10.3850    4.6575   23.2386 O   0  0  0  0  0  0  0  0  0  0  0  0
    4.2069    6.8450   20.7994 C   0  0  0  0  0  0  0  0  0  0  0  0
    3.0726   10.1043   19.8522 O   0  0  0  0  0  0  0  0  0  0  0  0
    5.5057    7.1196   21.1155 C   0  0  0  0  0  0  0  0  0  0  0  0
    7.0367   11.0229   21.9948 O   0  0  0  0  0  0  0  0  0  0  0  0
  1  8  4  0
  1 12  4  0
  2  9  1  0
  2 11  4  0
  2 25  4  0
  3 12  4  0
  3 14  1  0
  3 23  4  0
  4 13  4  0
  4 21  4  0
  4 24  1  0
  5  8  4  0
  5 23  4  0
  6 18  2  0
  7 15  4  0
  7 16  1  0
  7 27  4  0
  8 18  1  0
 10 18  1  0
 10 20  1  0
 11 15  4  0
 11 26  1  0
 13 22  4  0
 16 19  1  0
 16 20  2  0
 17 19  4  0
 17 21  4  0
 19 22  4  0
 20 28  1  0
 25 27  4  0
M  END
$$$$

 Created by Python create_sdf_string function

 28 30  0  0  0  0  0  0  0  0999 V2000
   11.4592   11.2893   18.7941 C   0  0  0  0  0  0  0  0  0  0  0  0
    3.4202    7.9009   20.3866 C   0  0  0  0  0  0  0  0  0  0  0  0
   13.5280   10.3522   19.3586 C   0  0  0  0  0  0  0  0  0  0  0  0
    9.6923    5.6468   22.7891 C   0  0  0  0  0  0  0  0  0  0  0  0
   11.7756   10.2554   20.8841 N   0  0  0  0  0  0  0  0  0  0  0  0
    8.9876   11.9370   19.8757 O   0  0  0  0  0  0  0  0  0  0  0  0
    6.0167    8.4478   21.1089 C   0  0  0  0  0  0  0  0  0  0  0  0
   11.0002   10.8890   20.0262 C   0  0  0  0  0  0  0  0  0  0  0  0
    2.1721    7.7393   20.0315 O   0  0  0  0  0  0  0  0  0  0  0  0
    9.1107   10.3880   21.3769 N   0  0  0  0  0  0  0  0  0  0  0  0
    3.9102    9.2008   20.3124 C   0  0  0  0  0  0  0  0  0  0  0  0
   12.7292   10.9960   18.4597 C   0  0  0  0  0  0  0  0  0  0  0  0
    9.3798    6.6793   23.6625 C   0  0  0  0  0  0  0  0  0  0  0  0
   14.7425   10.0739   19.0802 O   0  0  0  0  0  0  0  0  0  0  0  0
    5.1894    9.4673   20.7118 C   0  0  0  0  0  0  0  0  0  0  0  0
    7.3773    8.8224   21.4870 C   0  0  0  0  0  0  0  0  0  0  0  0
    8.4391    6.6439   21.0235 C   0  0  0  0  0  0  0  0  0  0  0  0
    9.6494   11.1353   20.4167 C   0  0  0  0  0  0  0  0  0  0  0  0
    8.1431    7.6829   21.9046 C   0  0  0  0  0  0  0  0  0  0  0  0
    7.7796   10.1314   21.5115 N   0  0  0  0  0  0  0  0  0  0  0  0
    9.2768    5.6183   21.4437 C   0  0  0  0  0  0  0  0  0  0  0  0
    8.6315    7.7322   23.1768 C   0  0  0  0  0  0  0  0  0  0  0  0
   13.0537    9.9821   20.5781 C   0  0  0  0  0  0  0  0  0  0  0  0
   10.3850    4.6575   23.2386 O   0  0  0  0  0  0  0  0  0  0  0  0
    4.2069    6.8450   20.7994 C   0  0  0  0  0  0  0  0  0  0  0  0
    3.0726   10.1043   19.8522 O   0  0  0  0  0  0  0  0  0  0  0  0
    5.5057    7.1196   21.1155 C   0  0  0  0  0  0  0  0  0  0  0  0
    7.0367   11.0229   21.9948 O   0  0  0  0  0  0  0  0  0  0  0  0
  1  8  4  0
  1 12  4  0
  2  9  1  0
  2 11  4  0
  2 25  4  0
  3 12  4  0
  3 14  1  0
  3 23  4  0
  4 13  4  0
  4 21  4  0
  4 24  1  0
  5  8  4  0
  5 23  4  0
  6 18  2  0
  7 15  4  0
  7 16  1  0
  7 27  4  0
  8 18  1  0
 10 18  1  0
 10 20  1  0
 11 15  4  0
 11 26  1  0
 13 22  4  0
 16 19  1  0
 16 20  2  0
 17 19  4  0
 17 21  4  0
 19 22  4  0
 20 28  1  0
 25 27  4  0
M  END
$$$$

 Created by Python create_sdf_string function

 28 30  0  0  0  0  0  0  0  0999 V2000
   11.4592   11.2893   18.7941 C   0  0  0  0  0  0  0  0  0  0  0  0
    3.4202    7.9009   20.3866 C   0  0  0  0  0  0  0  0  0  0  0  0
   13.5280   10.3522   19.3586 C   0  0  0  0  0  0  0  0  0  0  0  0
    9.6923    5.6468   22.7891 C   0  0  0  0  0  0  0  0  0  0  0  0
   11.7756   10.2554   20.8841 N   0  0  0  0  0  0  0  0  0  0  0  0
    8.9876   11.9370   19.8757 O   0  0  0  0  0  0  0  0  0  0  0  0
    6.0167    8.4478   21.1089 C   0  0  0  0  0  0  0  0  0  0  0  0
   11.0002   10.8890   20.0262 C   0  0  0  0  0  0  0  0  0  0  0  0
    2.1721    7.7393   20.0315 O   0  0  0  0  0  0  0  0  0  0  0  0
    9.1107   10.3880   21.3769 N   0  0  0  0  0  0  0  0  0  0  0  0
    3.9102    9.2008   20.3124 C   0  0  0  0  0  0  0  0  0  0  0  0
   12.7292   10.9960   18.4597 C   0  0  0  0  0  0  0  0  0  0  0  0
    9.3798    6.6793   23.6625 C   0  0  0  0  0  0  0  0  0  0  0  0
   14.7425   10.0739   19.0802 O   0  0  0  0  0  0  0  0  0  0  0  0
    5.1894    9.4673   20.7118 C   0  0  0  0  0  0  0  0  0  0  0  0
    7.3773    8.8224   21.4870 C   0  0  0  0  0  0  0  0  0  0  0  0
    8.4391    6.6439   21.0235 C   0  0  0  0  0  0  0  0  0  0  0  0
    9.6494   11.1353   20.4167 C   0  0  0  0  0  0  0  0  0  0  0  0
    8.1431    7.6829   21.9046 C   0  0  0  0  0  0  0  0  0  0  0  0
    7.7796   10.1314   21.5115 N   0  0  0  0  0  0  0  0  0  0  0  0
    9.2768    5.6183   21.4437 C   0  0  0  0  0  0  0  0  0  0  0  0
    8.6315    7.7322   23.1768 C   0  0  0  0  0  0  0  0  0  0  0  0
   13.0537    9.9821   20.5781 C   0  0  0  0  0  0  0  0  0  0  0  0
   10.3850    4.6575   23.2386 O   0  0  0  0  0  0  0  0  0  0  0  0
    4.2069    6.8450   20.7994 C   0  0  0  0  0  0  0  0  0  0  0  0
    3.0726   10.1043   19.8522 O   0  0  0  0  0  0  0  0  0  0  0  0
    5.5057    7.1196   21.1155 C   0  0  0  0  0  0  0  0  0  0  0  0
    7.0367   11.0229   21.9948 O   0  0  0  0  0  0  0  0  0  0  0  0
  1  8  4  0
  1 12  4  0
  2  9  1  0
  2 11  4  0
  2 25  4  0
  3 12  4  0
  3 14  1  0
  3 23  4  0
  4 13  4  0
  4 21  4  0
  4 24  1  0
  5  8  4  0
  5 23  4  0
  6 18  2  0
  7 15  4  0
  7 16  1  0
  7 27  4  0
  8 18  1  0
 10 18  1  0
 10 20  1  0
 11 15  4  0
 11 26  1  0
 13 22  4  0
 16 19  1  0
 16 20  2  0
 17 19  4  0
 17 21  4  0
 19 22  4  0
 20 28  1  0
 25 27  4  0
M  END
$$$$

 Created by Python create_sdf_string function

 28 30  0  0  0  0  0  0  0  0999 V2000
   11.4592   11.2893   18.7941 C   0  0  0  0  0  0  0  0  0  0  0  0
    3.4202    7.9009   20.3866 C   0  0  0  0  0  0  0  0  0  0  0  0
   13.5280   10.3522   19.3586 C   0  0  0  0  0  0  0  0  0  0  0  0
    9.6923    5.6468   22.7891 C   0  0  0  0  0  0  0  0  0  0  0  0
   11.7756   10.2554   20.8841 N   0  0  0  0  0  0  0  0  0  0  0  0
    8.9876   11.9370   19.8757 O   0  0  0  0  0  0  0  0  0  0  0  0
    6.0167    8.4478   21.1089 C   0  0  0  0  0  0  0  0  0  0  0  0
   11.0002   10.8890   20.0262 C   0  0  0  0  0  0  0  0  0  0  0  0
    2.1721    7.7393   20.0315 O   0  0  0  0  0  0  0  0  0  0  0  0
    9.1107   10.3880   21.3769 N   0  0  0  0  0  0  0  0  0  0  0  0
    3.9102    9.2008   20.3124 C   0  0  0  0  0  0  0  0  0  0  0  0
   12.7292   10.9960   18.4597 C   0  0  0  0  0  0  0  0  0  0  0  0
    9.3798    6.6793   23.6625 C   0  0  0  0  0  0  0  0  0  0  0  0
   14.7425   10.0739   19.0802 O   0  0  0  0  0  0  0  0  0  0  0  0
    5.1894    9.4673   20.7118 C   0  0  0  0  0  0  0  0  0  0  0  0
    7.3773    8.8224   21.4870 C   0  0  0  0  0  0  0  0  0  0  0  0
    8.4391    6.6439   21.0235 C   0  0  0  0  0  0  0  0  0  0  0  0
    9.6494   11.1353   20.4167 C   0  0  0  0  0  0  0  0  0  0  0  0
    8.1431    7.6829   21.9046 C   0  0  0  0  0  0  0  0  0  0  0  0
    7.7796   10.1314   21.5115 N   0  0  0  0  0  0  0  0  0  0  0  0
    9.2768    5.6183   21.4437 C   0  0  0  0  0  0  0  0  0  0  0  0
    8.6315    7.7322   23.1768 C   0  0  0  0  0  0  0  0  0  0  0  0
   13.0537    9.9821   20.5781 C   0  0  0  0  0  0  0  0  0  0  0  0
   10.3850    4.6575   23.2386 O   0  0  0  0  0  0  0  0  0  0  0  0
    4.2069    6.8450   20.7994 C   0  0  0  0  0  0  0  0  0  0  0  0
    3.0726   10.1043   19.8522 O   0  0  0  0  0  0  0  0  0  0  0  0
    5.5057    7.1196   21.1155 C   0  0  0  0  0  0  0  0  0  0  0  0
    7.0367   11.0229   21.9948 O   0  0  0  0  0  0  0  0  0  0  0  0
  1  8  4  0
  1 12  4  0
  2  9  1  0
  2 11  4  0
  2 25  4  0
  3 12  4  0
  3 14  1  0
  3 23  4  0
  4 13  4  0
  4 21  4  0
  4 24  1  0
  5  8  4  0
  5 23  4  0
  6 18  2  0
  7 15  4  0
  7 16  1  0
  7 27  4  0
  8 18  1  0
 10 18  1  0
 10 20  1  0
 11 15  4  0
 11 26  1  0
 13 22  4  0
 16 19  1  0
 16 20  2  0
 17 19  4  0
 17 21  4  0
 19 22  4  0
 20 28  1  0
 25 27  4  0
M  END
$$$$

 Created by Python create_sdf_string function

 28 30  0  0  0  0  0  0  0  0999 V2000
   11.4592   11.2893   18.7941 C   0  0  0  0  0  0  0  0  0  0  0  0
    3.4202    7.9009   20.3866 C   0  0  0  0  0  0  0  0  0  0  0  0
   13.5280   10.3522   19.3586 C   0  0  0  0  0  0  0  0  0  0  0  0
    9.6923    5.6468   22.7891 C   0  0  0  0  0  0  0  0  0  0  0  0
   11.7756   10.2554   20.8841 N   0  0  0  0  0  0  0  0  0  0  0  0
    8.9876   11.9370   19.8757 O   0  0  0  0  0  0  0  0  0  0  0  0
    6.0167    8.4478   21.1089 C   0  0  0  0  0  0  0  0  0  0  0  0
   11.0002   10.8890   20.0262 C   0  0  0  0  0  0  0  0  0  0  0  0
    2.1721    7.7393   20.0315 O   0  0  0  0  0  0  0  0  0  0  0  0
    9.1107   10.3880   21.3769 N   0  0  0  0  0  0  0  0  0  0  0  0
    3.9102    9.2008   20.3124 C   0  0  0  0  0  0  0  0  0  0  0  0
   12.7292   10.9960   18.4597 C   0  0  0  0  0  0  0  0  0  0  0  0
    9.3798    6.6793   23.6625 C   0  0  0  0  0  0  0  0  0  0  0  0
   14.7425   10.0739   19.0802 O   0  0  0  0  0  0  0  0  0  0  0  0
    5.1894    9.4673   20.7118 C   0  0  0  0  0  0  0  0  0  0  0  0
    7.3773    8.8224   21.4870 C   0  0  0  0  0  0  0  0  0  0  0  0
    8.4391    6.6439   21.0235 C   0  0  0  0  0  0  0  0  0  0  0  0
    9.6494   11.1353   20.4167 C   0  0  0  0  0  0  0  0  0  0  0  0
    8.1431    7.6829   21.9046 C   0  0  0  0  0  0  0  0  0  0  0  0
    7.7796   10.1314   21.5115 N   0  0  0  0  0  0  0  0  0  0  0  0
    9.2768    5.6183   21.4437 C   0  0  0  0  0  0  0  0  0  0  0  0
    8.6315    7.7322   23.1768 C   0  0  0  0  0  0  0  0  0  0  0  0
   13.0537    9.9821   20.5781 C   0  0  0  0  0  0  0  0  0  0  0  0
   10.3850    4.6575   23.2386 O   0  0  0  0  0  0  0  0  0  0  0  0
    4.2069    6.8450   20.7994 C   0  0  0  0  0  0  0  0  0  0  0  0
    3.0726   10.1043   19.8522 O   0  0  0  0  0  0  0  0  0  0  0  0
    5.5057    7.1196   21.1155 C   0  0  0  0  0  0  0  0  0  0  0  0
    7.0367   11.0229   21.9948 O   0  0  0  0  0  0  0  0  0  0  0  0
  1  8  4  0
  1 12  4  0
  2  9  1  0
  2 11  4  0
  2 25  4  0
  3 12  4  0
  3 14  1  0
  3 23  4  0
  4 13  4  0
  4 21  4  0
  4 24  1  0
  5  8  4  0
  5 23  4  0
  6 18  2  0
  7 15  4  0
  7 16  1  0
  7 27  4  0
  8 18  1  0
 10 18  1  0
 10 20  1  0
 11 15  4  0
 11 26  1  0
 13 22  4  0
 16 19  1  0
 16 20  2  0
 17 19  4  0
 17 21  4  0
 19 22  4  0
 20 28  1  0
 25 27  4  0
M  END
$$$$

 Created by Python create_sdf_string function

 28 30  0  0  0  0  0  0  0  0999 V2000
   11.4592   11.2893   18.7941 C   0  0  0  0  0  0  0  0  0  0  0  0
    3.4202    7.9009   20.3866 C   0  0  0  0  0  0  0  0  0  0  0  0
   13.5280   10.3522   19.3586 C   0  0  0  0  0  0  0  0  0  0  0  0
    9.6923    5.6468   22.7891 C   0  0  0  0  0  0  0  0  0  0  0  0
   11.7756   10.2554   20.8841 N   0  0  0  0  0  0  0  0  0  0  0  0
    8.9876   11.9370   19.8757 O   0  0  0  0  0  0  0  0  0  0  0  0
    6.0167    8.4478   21.1089 C   0  0  0  0  0  0  0  0  0  0  0  0
   11.0002   10.8890   20.0262 C   0  0  0  0  0  0  0  0  0  0  0  0
    2.1721    7.7393   20.0315 O   0  0  0  0  0  0  0  0  0  0  0  0
    9.1107   10.3880   21.3769 N   0  0  0  0  0  0  0  0  0  0  0  0
    3.9102    9.2008   20.3124 C   0  0  0  0  0  0  0  0  0  0  0  0
   12.7292   10.9960   18.4597 C   0  0  0  0  0  0  0  0  0  0  0  0
    9.3798    6.6793   23.6625 C   0  0  0  0  0  0  0  0  0  0  0  0
   14.7425   10.0739   19.0802 O   0  0  0  0  0  0  0  0  0  0  0  0
    5.1894    9.4673   20.7118 C   0  0  0  0  0  0  0  0  0  0  0  0
    7.3773    8.8224   21.4870 C   0  0  0  0  0  0  0  0  0  0  0  0
    8.4391    6.6439   21.0235 C   0  0  0  0  0  0  0  0  0  0  0  0
    9.6494   11.1353   20.4167 C   0  0  0  0  0  0  0  0  0  0  0  0
    8.1431    7.6829   21.9046 C   0  0  0  0  0  0  0  0  0  0  0  0
    7.7796   10.1314   21.5115 N   0  0  0  0  0  0  0  0  0  0  0  0
    9.2768    5.6183   21.4437 C   0  0  0  0  0  0  0  0  0  0  0  0
    8.6315    7.7322   23.1768 C   0  0  0  0  0  0  0  0  0  0  0  0
   13.0537    9.9821   20.5781 C   0  0  0  0  0  0  0  0  0  0  0  0
   10.3850    4.6575   23.2386 O   0  0  0  0  0  0  0  0  0  0  0  0
    4.2069    6.8450   20.7994 C   0  0  0  0  0  0  0  0  0  0  0  0
    3.0726   10.1043   19.8522 O   0  0  0  0  0  0  0  0  0  0  0  0
    5.5057    7.1196   21.1155 C   0  0  0  0  0  0  0  0  0  0  0  0
    7.0367   11.0229   21.9948 O   0  0  0  0  0  0  0  0  0  0  0  0
  1  8  4  0
  1 12  4  0
  2  9  1  0
  2 11  4  0
  2 25  4  0
  3 12  4  0
  3 14  1  0
  3 23  4  0
  4 13  4  0
  4 21  4  0
  4 24  1  0
  5  8  4  0
  5 23  4  0
  6 18  2  0
  7 15  4  0
  7 16  1  0
  7 27  4  0
  8 18  1  0
 10 18  1  0
 10 20  1  0
 11 15  4  0
 11 26  1  0
 13 22  4  0
 16 19  1  0
 16 20  2  0
 17 19  4  0
 17 21  4  0
 19 22  4  0
 20 28  1  0
 25 27  4  0
M  END
$$$$

 Created by Python create_sdf_string function

 28 30  0  0  0  0  0  0  0  0999 V2000
   11.4592   11.2893   18.7941 C   0  0  0  0  0  0  0  0  0  0  0  0
    3.4202    7.9009   20.3866 C   0  0  0  0  0  0  0  0  0  0  0  0
   13.5280   10.3522   19.3586 C   0  0  0  0  0  0  0  0  0  0  0  0
    9.6923    5.6468   22.7891 C   0  0  0  0  0  0  0  0  0  0  0  0
   11.7756   10.2554   20.8841 N   0  0  0  0  0  0  0  0  0  0  0  0
    8.9876   11.9370   19.8757 O   0  0  0  0  0  0  0  0  0  0  0  0
    6.0167    8.4478   21.1089 C   0  0  0  0  0  0  0  0  0  0  0  0
   11.0002   10.8890   20.0262 C   0  0  0  0  0  0  0  0  0  0  0  0
    2.1721    7.7393   20.0315 O   0  0  0  0  0  0  0  0  0  0  0  0
    9.1107   10.3880   21.3769 N   0  0  0  0  0  0  0  0  0  0  0  0
    3.9102    9.2008   20.3124 C   0  0  0  0  0  0  0  0  0  0  0  0
   12.7292   10.9960   18.4597 C   0  0  0  0  0  0  0  0  0  0  0  0
    9.3798    6.6793   23.6625 C   0  0  0  0  0  0  0  0  0  0  0  0
   14.7425   10.0739   19.0802 O   0  0  0  0  0  0  0  0  0  0  0  0
    5.1894    9.4673   20.7118 C   0  0  0  0  0  0  0  0  0  0  0  0
    7.3773    8.8224   21.4870 C   0  0  0  0  0  0  0  0  0  0  0  0
    8.4391    6.6439   21.0235 C   0  0  0  0  0  0  0  0  0  0  0  0
    9.6494   11.1353   20.4167 C   0  0  0  0  0  0  0  0  0  0  0  0
    8.1431    7.6829   21.9046 C   0  0  0  0  0  0  0  0  0  0  0  0
    7.7796   10.1314   21.5115 N   0  0  0  0  0  0  0  0  0  0  0  0
    9.2768    5.6183   21.4437 C   0  0  0  0  0  0  0  0  0  0  0  0
    8.6315    7.7322   23.1768 C   0  0  0  0  0  0  0  0  0  0  0  0
   13.0537    9.9821   20.5781 C   0  0  0  0  0  0  0  0  0  0  0  0
   10.3850    4.6575   23.2386 O   0  0  0  0  0  0  0  0  0  0  0  0
    4.2069    6.8450   20.7994 C   0  0  0  0  0  0  0  0  0  0  0  0
    3.0726   10.1043   19.8522 O   0  0  0  0  0  0  0  0  0  0  0  0
    5.5057    7.1196   21.1155 C   0  0  0  0  0  0  0  0  0  0  0  0
    7.0367   11.0229   21.9948 O   0  0  0  0  0  0  0  0  0  0  0  0
  1  8  4  0
  1 12  4  0
  2  9  1  0
  2 11  4  0
  2 25  4  0
  3 12  4  0
  3 14  1  0
  3 23  4  0
  4 13  4  0
  4 21  4  0
  4 24  1  0
  5  8  4  0
  5 23  4  0
  6 18  2  0
  7 15  4  0
  7 16  1  0
  7 27  4  0
  8 18  1  0
 10 18  1  0
 10 20  1  0
 11 15  4  0
 11 26  1  0
 13 22  4  0
 16 19  1  0
 16 20  2  0
 17 19  4  0
 17 21  4  0
 19 22  4  0
 20 28  1  0
 25 27  4  0
M  END
$$$$

 Created by Python create_sdf_string function

 28 30  0  0  0  0  0  0  0  0999 V2000
   11.4592   11.2893   18.7941 C   0  0  0  0  0  0  0  0  0  0  0  0
    3.4202    7.9009   20.3866 C   0  0  0  0  0  0  0  0  0  0  0  0
   13.5280   10.3522   19.3586 C   0  0  0  0  0  0  0  0  0  0  0  0
    9.6923    5.6468   22.7891 C   0  0  0  0  0  0  0  0  0  0  0  0
   11.7756   10.2554   20.8841 N   0  0  0  0  0  0  0  0  0  0  0  0
    8.9876   11.9370   19.8757 O   0  0  0  0  0  0  0  0  0  0  0  0
    6.0167    8.4478   21.1089 C   0  0  0  0  0  0  0  0  0  0  0  0
   11.0002   10.8890   20.0262 C   0  0  0  0  0  0  0  0  0  0  0  0
    2.1721    7.7393   20.0315 O   0  0  0  0  0  0  0  0  0  0  0  0
    9.1107   10.3880   21.3769 N   0  0  0  0  0  0  0  0  0  0  0  0
    3.9102    9.2008   20.3124 C   0  0  0  0  0  0  0  0  0  0  0  0
   12.7292   10.9960   18.4597 C   0  0  0  0  0  0  0  0  0  0  0  0
    9.3798    6.6793   23.6625 C   0  0  0  0  0  0  0  0  0  0  0  0
   14.7425   10.0739   19.0802 O   0  0  0  0  0  0  0  0  0  0  0  0
    5.1894    9.4673   20.7118 C   0  0  0  0  0  0  0  0  0  0  0  0
    7.3773    8.8224   21.4870 C   0  0  0  0  0  0  0  0  0  0  0  0
    8.4391    6.6439   21.0235 C   0  0  0  0  0  0  0  0  0  0  0  0
    9.6494   11.1353   20.4167 C   0  0  0  0  0  0  0  0  0  0  0  0
    8.1431    7.6829   21.9046 C   0  0  0  0  0  0  0  0  0  0  0  0
    7.7796   10.1314   21.5115 N   0  0  0  0  0  0  0  0  0  0  0  0
    9.2768    5.6183   21.4437 C   0  0  0  0  0  0  0  0  0  0  0  0
    8.6315    7.7322   23.1768 C   0  0  0  0  0  0  0  0  0  0  0  0
   13.0537    9.9821   20.5781 C   0  0  0  0  0  0  0  0  0  0  0  0
   10.3850    4.6575   23.2386 O   0  0  0  0  0  0  0  0  0  0  0  0
    4.2069    6.8450   20.7994 C   0  0  0  0  0  0  0  0  0  0  0  0
    3.0726   10.1043   19.8522 O   0  0  0  0  0  0  0  0  0  0  0  0
    5.5057    7.1196   21.1155 C   0  0  0  0  0  0  0  0  0  0  0  0
    7.0367   11.0229   21.9948 O   0  0  0  0  0  0  0  0  0  0  0  0
  1  8  4  0
  1 12  4  0
  2  9  1  0
  2 11  4  0
  2 25  4  0
  3 12  4  0
  3 14  1  0
  3 23  4  0
  4 13  4  0
  4 21  4  0
  4 24  1  0
  5  8  4  0
  5 23  4  0
  6 18  2  0
  7 15  4  0
  7 16  1  0
  7 27  4  0
  8 18  1  0
 10 18  1  0
 10 20  1  0
 11 15  4  0
 11 26  1  0
 13 22  4  0
 16 19  1  0
 16 20  2  0
 17 19  4  0
 17 21  4  0
 19 22  4  0
 20 28  1  0
 25 27  4  0
M  END
$$$$

 Created by Python create_sdf_string function

 28 30  0  0  0  0  0  0  0  0999 V2000
   11.4592   11.2893   18.7941 C   0  0  0  0  0  0  0  0  0  0  0  0
    3.4202    7.9009   20.3866 C   0  0  0  0  0  0  0  0  0  0  0  0
   13.5280   10.3522   19.3586 C   0  0  0  0  0  0  0  0  0  0  0  0
    9.6923    5.6468   22.7891 C   0  0  0  0  0  0  0  0  0  0  0  0
   11.7756   10.2554   20.8841 N   0  0  0  0  0  0  0  0  0  0  0  0
    8.9876   11.9370   19.8757 O   0  0  0  0  0  0  0  0  0  0  0  0
    6.0167    8.4478   21.1089 C   0  0  0  0  0  0  0  0  0  0  0  0
   11.0002   10.8890   20.0262 C   0  0  0  0  0  0  0  0  0  0  0  0
    2.1721    7.7393   20.0315 O   0  0  0  0  0  0  0  0  0  0  0  0
    9.1107   10.3880   21.3769 N   0  0  0  0  0  0  0  0  0  0  0  0
    3.9102    9.2008   20.3124 C   0  0  0  0  0  0  0  0  0  0  0  0
   12.7292   10.9960   18.4597 C   0  0  0  0  0  0  0  0  0  0  0  0
    9.3798    6.6793   23.6625 C   0  0  0  0  0  0  0  0  0  0  0  0
   14.7425   10.0739   19.0802 O   0  0  0  0  0  0  0  0  0  0  0  0
    5.1894    9.4673   20.7118 C   0  0  0  0  0  0  0  0  0  0  0  0
    7.3773    8.8224   21.4870 C   0  0  0  0  0  0  0  0  0  0  0  0
    8.4391    6.6439   21.0235 C   0  0  0  0  0  0  0  0  0  0  0  0
    9.6494   11.1353   20.4167 C   0  0  0  0  0  0  0  0  0  0  0  0
    8.1431    7.6829   21.9046 C   0  0  0  0  0  0  0  0  0  0  0  0
    7.7796   10.1314   21.5115 N   0  0  0  0  0  0  0  0  0  0  0  0
    9.2768    5.6183   21.4437 C   0  0  0  0  0  0  0  0  0  0  0  0
    8.6315    7.7322   23.1768 C   0  0  0  0  0  0  0  0  0  0  0  0
   13.0537    9.9821   20.5781 C   0  0  0  0  0  0  0  0  0  0  0  0
   10.3850    4.6575   23.2386 O   0  0  0  0  0  0  0  0  0  0  0  0
    4.2069    6.8450   20.7994 C   0  0  0  0  0  0  0  0  0  0  0  0
    3.0726   10.1043   19.8522 O   0  0  0  0  0  0  0  0  0  0  0  0
    5.5057    7.1196   21.1155 C   0  0  0  0  0  0  0  0  0  0  0  0
    7.0367   11.0229   21.9948 O   0  0  0  0  0  0  0  0  0  0  0  0
  1  8  4  0
  1 12  4  0
  2  9  1  0
  2 11  4  0
  2 25  4  0
  3 12  4  0
  3 14  1  0
  3 23  4  0
  4 13  4  0
  4 21  4  0
  4 24  1  0
  5  8  4  0
  5 23  4  0
  6 18  2  0
  7 15  4  0
  7 16  1  0
  7 27  4  0
  8 18  1  0
 10 18  1  0
 10 20  1  0
 11 15  4  0
 11 26  1  0
 13 22  4  0
 16 19  1  0
 16 20  2  0
 17 19  4  0
 17 21  4  0
 19 22  4  0
 20 28  1  0
 25 27  4  0
M  END
$$$$

 Created by Python create_sdf_string function

 28 30  0  0  0  0  0  0  0  0999 V2000
   11.4592   11.2893   18.7941 C   0  0  0  0  0  0  0  0  0  0  0  0
    3.4202    7.9009   20.3866 C   0  0  0  0  0  0  0  0  0  0  0  0
   13.5280   10.3522   19.3586 C   0  0  0  0  0  0  0  0  0  0  0  0
    9.6923    5.6468   22.7891 C   0  0  0  0  0  0  0  0  0  0  0  0
   11.7756   10.2554   20.8841 N   0  0  0  0  0  0  0  0  0  0  0  0
    8.9876   11.9370   19.8757 O   0  0  0  0  0  0  0  0  0  0  0  0
    6.0167    8.4478   21.1089 C   0  0  0  0  0  0  0  0  0  0  0  0
   11.0002   10.8890   20.0262 C   0  0  0  0  0  0  0  0  0  0  0  0
    2.1721    7.7393   20.0315 O   0  0  0  0  0  0  0  0  0  0  0  0
    9.1107   10.3880   21.3769 N   0  0  0  0  0  0  0  0  0  0  0  0
    3.9102    9.2008   20.3124 C   0  0  0  0  0  0  0  0  0  0  0  0
   12.7292   10.9960   18.4597 C   0  0  0  0  0  0  0  0  0  0  0  0
    9.3798    6.6793   23.6625 C   0  0  0  0  0  0  0  0  0  0  0  0
   14.7425   10.0739   19.0802 O   0  0  0  0  0  0  0  0  0  0  0  0
    5.1894    9.4673   20.7118 C   0  0  0  0  0  0  0  0  0  0  0  0
    7.3773    8.8224   21.4870 C   0  0  0  0  0  0  0  0  0  0  0  0
    8.4391    6.6439   21.0235 C   0  0  0  0  0  0  0  0  0  0  0  0
    9.6494   11.1353   20.4167 C   0  0  0  0  0  0  0  0  0  0  0  0
    8.1431    7.6829   21.9046 C   0  0  0  0  0  0  0  0  0  0  0  0
    7.7796   10.1314   21.5115 N   0  0  0  0  0  0  0  0  0  0  0  0
    9.2768    5.6183   21.4437 C   0  0  0  0  0  0  0  0  0  0  0  0
    8.6315    7.7322   23.1768 C   0  0  0  0  0  0  0  0  0  0  0  0
   13.0537    9.9821   20.5781 C   0  0  0  0  0  0  0  0  0  0  0  0
   10.3850    4.6575   23.2386 O   0  0  0  0  0  0  0  0  0  0  0  0
    4.2069    6.8450   20.7994 C   0  0  0  0  0  0  0  0  0  0  0  0
    3.0726   10.1043   19.8522 O   0  0  0  0  0  0  0  0  0  0  0  0
    5.5057    7.1196   21.1155 C   0  0  0  0  0  0  0  0  0  0  0  0
    7.0367   11.0229   21.9948 O   0  0  0  0  0  0  0  0  0  0  0  0
  1  8  4  0
  1 12  4  0
  2  9  1  0
  2 11  4  0
  2 25  4  0
  3 12  4  0
  3 14  1  0
  3 23  4  0
  4 13  4  0
  4 21  4  0
  4 24  1  0
  5  8  4  0
  5 23  4  0
  6 18  2  0
  7 15  4  0
  7 16  1  0
  7 27  4  0
  8 18  1  0
 10 18  1  0
 10 20  1  0
 11 15  4  0
 11 26  1  0
 13 22  4  0
 16 19  1  0
 16 20  2  0
 17 19  4  0
 17 21  4  0
 19 22  4  0
 20 28  1  0
 25 27  4  0
M  END
$$$$

 Created by Python create_sdf_string function

 28 30  0  0  0  0  0  0  0  0999 V2000
   11.4592   11.2893   18.7941 C   0  0  0  0  0  0  0  0  0  0  0  0
    3.4202    7.9009   20.3866 C   0  0  0  0  0  0  0  0  0  0  0  0
   13.5280   10.3522   19.3586 C   0  0  0  0  0  0  0  0  0  0  0  0
    9.6923    5.6468   22.7891 C   0  0  0  0  0  0  0  0  0  0  0  0
   11.7756   10.2554   20.8841 N   0  0  0  0  0  0  0  0  0  0  0  0
    8.9876   11.9370   19.8757 O   0  0  0  0  0  0  0  0  0  0  0  0
    6.0167    8.4478   21.1089 C   0  0  0  0  0  0  0  0  0  0  0  0
   11.0002   10.8890   20.0262 C   0  0  0  0  0  0  0  0  0  0  0  0
    2.1721    7.7393   20.0315 O   0  0  0  0  0  0  0  0  0  0  0  0
    9.1107   10.3880   21.3769 N   0  0  0  0  0  0  0  0  0  0  0  0
    3.9102    9.2008   20.3124 C   0  0  0  0  0  0  0  0  0  0  0  0
   12.7292   10.9960   18.4597 C   0  0  0  0  0  0  0  0  0  0  0  0
    9.3798    6.6793   23.6625 C   0  0  0  0  0  0  0  0  0  0  0  0
   14.7425   10.0739   19.0802 O   0  0  0  0  0  0  0  0  0  0  0  0
    5.1894    9.4673   20.7118 C   0  0  0  0  0  0  0  0  0  0  0  0
    7.3773    8.8224   21.4870 C   0  0  0  0  0  0  0  0  0  0  0  0
    8.4391    6.6439   21.0235 C   0  0  0  0  0  0  0  0  0  0  0  0
    9.6494   11.1353   20.4167 C   0  0  0  0  0  0  0  0  0  0  0  0
    8.1431    7.6829   21.9046 C   0  0  0  0  0  0  0  0  0  0  0  0
    7.7796   10.1314   21.5115 N   0  0  0  0  0  0  0  0  0  0  0  0
    9.2768    5.6183   21.4437 C   0  0  0  0  0  0  0  0  0  0  0  0
    8.6315    7.7322   23.1768 C   0  0  0  0  0  0  0  0  0  0  0  0
   13.0537    9.9821   20.5781 C   0  0  0  0  0  0  0  0  0  0  0  0
   10.3850    4.6575   23.2386 O   0  0  0  0  0  0  0  0  0  0  0  0
    4.2069    6.8450   20.7994 C   0  0  0  0  0  0  0  0  0  0  0  0
    3.0726   10.1043   19.8522 O   0  0  0  0  0  0  0  0  0  0  0  0
    5.5057    7.1196   21.1155 C   0  0  0  0  0  0  0  0  0  0  0  0
    7.0367   11.0229   21.9948 O   0  0  0  0  0  0  0  0  0  0  0  0
  1  8  4  0
  1 12  4  0
  2  9  1  0
  2 11  4  0
  2 25  4  0
  3 12  4  0
  3 14  1  0
  3 23  4  0
  4 13  4  0
  4 21  4  0
  4 24  1  0
  5  8  4  0
  5 23  4  0
  6 18  2  0
  7 15  4  0
  7 16  1  0
  7 27  4  0
  8 18  1  0
 10 18  1  0
 10 20  1  0
 11 15  4  0
 11 26  1  0
 13 22  4  0
 16 19  1  0
 16 20  2  0
 17 19  4  0
 17 21  4  0
 19 22  4  0
 20 28  1  0
 25 27  4  0
M  END
$$$$

 Created by Python create_sdf_string function

 28 30  0  0  0  0  0  0  0  0999 V2000
   11.4592   11.2893   18.7941 C   0  0  0  0  0  0  0  0  0  0  0  0
    3.4202    7.9009   20.3866 C   0  0  0  0  0  0  0  0  0  0  0  0
   13.5280   10.3522   19.3586 C   0  0  0  0  0  0  0  0  0  0  0  0
    9.6923    5.6468   22.7891 C   0  0  0  0  0  0  0  0  0  0  0  0
   11.7756   10.2554   20.8841 N   0  0  0  0  0  0  0  0  0  0  0  0
    8.9876   11.9370   19.8757 O   0  0  0  0  0  0  0  0  0  0  0  0
    6.0167    8.4478   21.1089 C   0  0  0  0  0  0  0  0  0  0  0  0
   11.0002   10.8890   20.0262 C   0  0  0  0  0  0  0  0  0  0  0  0
    2.1721    7.7393   20.0315 O   0  0  0  0  0  0  0  0  0  0  0  0
    9.1107   10.3880   21.3769 N   0  0  0  0  0  0  0  0  0  0  0  0
    3.9102    9.2008   20.3124 C   0  0  0  0  0  0  0  0  0  0  0  0
   12.7292   10.9960   18.4597 C   0  0  0  0  0  0  0  0  0  0  0  0
    9.3798    6.6793   23.6625 C   0  0  0  0  0  0  0  0  0  0  0  0
   14.7425   10.0739   19.0802 O   0  0  0  0  0  0  0  0  0  0  0  0
    5.1894    9.4673   20.7118 C   0  0  0  0  0  0  0  0  0  0  0  0
    7.3773    8.8224   21.4870 C   0  0  0  0  0  0  0  0  0  0  0  0
    8.4391    6.6439   21.0235 C   0  0  0  0  0  0  0  0  0  0  0  0
    9.6494   11.1353   20.4167 C   0  0  0  0  0  0  0  0  0  0  0  0
    8.1431    7.6829   21.9046 C   0  0  0  0  0  0  0  0  0  0  0  0
    7.7796   10.1314   21.5115 N   0  0  0  0  0  0  0  0  0  0  0  0
    9.2768    5.6183   21.4437 C   0  0  0  0  0  0  0  0  0  0  0  0
    8.6315    7.7322   23.1768 C   0  0  0  0  0  0  0  0  0  0  0  0
   13.0537    9.9821   20.5781 C   0  0  0  0  0  0  0  0  0  0  0  0
   10.3850    4.6575   23.2386 O   0  0  0  0  0  0  0  0  0  0  0  0
    4.2069    6.8450   20.7994 C   0  0  0  0  0  0  0  0  0  0  0  0
    3.0726   10.1043   19.8522 O   0  0  0  0  0  0  0  0  0  0  0  0
    5.5057    7.1196   21.1155 C   0  0  0  0  0  0  0  0  0  0  0  0
    7.0367   11.0229   21.9948 O   0  0  0  0  0  0  0  0  0  0  0  0
  1  8  4  0
  1 12  4  0
  2  9  1  0
  2 11  4  0
  2 25  4  0
  3 12  4  0
  3 14  1  0
  3 23  4  0
  4 13  4  0
  4 21  4  0
  4 24  1  0
  5  8  4  0
  5 23  4  0
  6 18  2  0
  7 15  4  0
  7 16  1  0
  7 27  4  0
  8 18  1  0
 10 18  1  0
 10 20  1  0
 11 15  4  0
 11 26  1  0
 13 22  4  0
 16 19  1  0
 16 20  2  0
 17 19  4  0
 17 21  4  0
 19 22  4  0
 20 28  1  0
 25 27  4  0
M  END
$$$$

 Created by Python create_sdf_string function

 28 30  0  0  0  0  0  0  0  0999 V2000
   11.4592   11.2893   18.7941 C   0  0  0  0  0  0  0  0  0  0  0  0
    3.4202    7.9009   20.3866 C   0  0  0  0  0  0  0  0  0  0  0  0
   13.5280   10.3522   19.3586 C   0  0  0  0  0  0  0  0  0  0  0  0
    9.6923    5.6468   22.7891 C   0  0  0  0  0  0  0  0  0  0  0  0
   11.7756   10.2554   20.8841 N   0  0  0  0  0  0  0  0  0  0  0  0
    8.9876   11.9370   19.8757 O   0  0  0  0  0  0  0  0  0  0  0  0
    6.0167    8.4478   21.1089 C   0  0  0  0  0  0  0  0  0  0  0  0
   11.0002   10.8890   20.0262 C   0  0  0  0  0  0  0  0  0  0  0  0
    2.1721    7.7393   20.0315 O   0  0  0  0  0  0  0  0  0  0  0  0
    9.1107   10.3880   21.3769 N   0  0  0  0  0  0  0  0  0  0  0  0
    3.9102    9.2008   20.3124 C   0  0  0  0  0  0  0  0  0  0  0  0
   12.7292   10.9960   18.4597 C   0  0  0  0  0  0  0  0  0  0  0  0
    9.3798    6.6793   23.6625 C   0  0  0  0  0  0  0  0  0  0  0  0
   14.7425   10.0739   19.0802 O   0  0  0  0  0  0  0  0  0  0  0  0
    5.1894    9.4673   20.7118 C   0  0  0  0  0  0  0  0  0  0  0  0
    7.3773    8.8224   21.4870 C   0  0  0  0  0  0  0  0  0  0  0  0
    8.4391    6.6439   21.0235 C   0  0  0  0  0  0  0  0  0  0  0  0
    9.6494   11.1353   20.4167 C   0  0  0  0  0  0  0  0  0  0  0  0
    8.1431    7.6829   21.9046 C   0  0  0  0  0  0  0  0  0  0  0  0
    7.7796   10.1314   21.5115 N   0  0  0  0  0  0  0  0  0  0  0  0
    9.2768    5.6183   21.4437 C   0  0  0  0  0  0  0  0  0  0  0  0
    8.6315    7.7322   23.1768 C   0  0  0  0  0  0  0  0  0  0  0  0
   13.0537    9.9821   20.5781 C   0  0  0  0  0  0  0  0  0  0  0  0
   10.3850    4.6575   23.2386 O   0  0  0  0  0  0  0  0  0  0  0  0
    4.2069    6.8450   20.7994 C   0  0  0  0  0  0  0  0  0  0  0  0
    3.0726   10.1043   19.8522 O   0  0  0  0  0  0  0  0  0  0  0  0
    5.5057    7.1196   21.1155 C   0  0  0  0  0  0  0  0  0  0  0  0
    7.0367   11.0229   21.9948 O   0  0  0  0  0  0  0  0  0  0  0  0
  1  8  4  0
  1 12  4  0
  2  9  1  0
  2 11  4  0
  2 25  4  0
  3 12  4  0
  3 14  1  0
  3 23  4  0
  4 13  4  0
  4 21  4  0
  4 24  1  0
  5  8  4  0
  5 23  4  0
  6 18  2  0
  7 15  4  0
  7 16  1  0
  7 27  4  0
  8 18  1  0
 10 18  1  0
 10 20  1  0
 11 15  4  0
 11 26  1  0
 13 22  4  0
 16 19  1  0
 16 20  2  0
 17 19  4  0
 17 21  4  0
 19 22  4  0
 20 28  1  0
 25 27  4  0
M  END
$$$$

 Created by Python create_sdf_string function

 28 30  0  0  0  0  0  0  0  0999 V2000
   11.4592   11.2893   18.7941 C   0  0  0  0  0  0  0  0  0  0  0  0
    3.4202    7.9009   20.3866 C   0  0  0  0  0  0  0  0  0  0  0  0
   13.5280   10.3522   19.3586 C   0  0  0  0  0  0  0  0  0  0  0  0
    9.6923    5.6468   22.7891 C   0  0  0  0  0  0  0  0  0  0  0  0
   11.7756   10.2554   20.8841 N   0  0  0  0  0  0  0  0  0  0  0  0
    8.9876   11.9370   19.8757 O   0  0  0  0  0  0  0  0  0  0  0  0
    6.0167    8.4478   21.1089 C   0  0  0  0  0  0  0  0  0  0  0  0
   11.0002   10.8890   20.0262 C   0  0  0  0  0  0  0  0  0  0  0  0
    2.1721    7.7393   20.0315 O   0  0  0  0  0  0  0  0  0  0  0  0
    9.1107   10.3880   21.3769 N   0  0  0  0  0  0  0  0  0  0  0  0
    3.9102    9.2008   20.3124 C   0  0  0  0  0  0  0  0  0  0  0  0
   12.7292   10.9960   18.4597 C   0  0  0  0  0  0  0  0  0  0  0  0
    9.3798    6.6793   23.6625 C   0  0  0  0  0  0  0  0  0  0  0  0
   14.7425   10.0739   19.0802 O   0  0  0  0  0  0  0  0  0  0  0  0
    5.1894    9.4673   20.7118 C   0  0  0  0  0  0  0  0  0  0  0  0
    7.3773    8.8224   21.4870 C   0  0  0  0  0  0  0  0  0  0  0  0
    8.4391    6.6439   21.0235 C   0  0  0  0  0  0  0  0  0  0  0  0
    9.6494   11.1353   20.4167 C   0  0  0  0  0  0  0  0  0  0  0  0
    8.1431    7.6829   21.9046 C   0  0  0  0  0  0  0  0  0  0  0  0
    7.7796   10.1314   21.5115 N   0  0  0  0  0  0  0  0  0  0  0  0
    9.2768    5.6183   21.4437 C   0  0  0  0  0  0  0  0  0  0  0  0
    8.6315    7.7322   23.1768 C   0  0  0  0  0  0  0  0  0  0  0  0
   13.0537    9.9821   20.5781 C   0  0  0  0  0  0  0  0  0  0  0  0
   10.3850    4.6575   23.2386 O   0  0  0  0  0  0  0  0  0  0  0  0
    4.2069    6.8450   20.7994 C   0  0  0  0  0  0  0  0  0  0  0  0
    3.0726   10.1043   19.8522 O   0  0  0  0  0  0  0  0  0  0  0  0
    5.5057    7.1196   21.1155 C   0  0  0  0  0  0  0  0  0  0  0  0
    7.0367   11.0229   21.9948 O   0  0  0  0  0  0  0  0  0  0  0  0
  1  8  4  0
  1 12  4  0
  2  9  1  0
  2 11  4  0
  2 25  4  0
  3 12  4  0
  3 14  1  0
  3 23  4  0
  4 13  4  0
  4 21  4  0
  4 24  1  0
  5  8  4  0
  5 23  4  0
  6 18  2  0
  7 15  4  0
  7 16  1  0
  7 27  4  0
  8 18  1  0
 10 18  1  0
 10 20  1  0
 11 15  4  0
 11 26  1  0
 13 22  4  0
 16 19  1  0
 16 20  2  0
 17 19  4  0
 17 21  4  0
 19 22  4  0
 20 28  1  0
 25 27  4  0
M  END
$$$$

 Created by Python create_sdf_string function

 28 30  0  0  0  0  0  0  0  0999 V2000
   11.4592   11.2893   18.7941 C   0  0  0  0  0  0  0  0  0  0  0  0
    3.4202    7.9009   20.3866 C   0  0  0  0  0  0  0  0  0  0  0  0
   13.5280   10.3522   19.3586 C   0  0  0  0  0  0  0  0  0  0  0  0
    9.6923    5.6468   22.7891 C   0  0  0  0  0  0  0  0  0  0  0  0
   11.7756   10.2554   20.8841 N   0  0  0  0  0  0  0  0  0  0  0  0
    8.9876   11.9370   19.8757 O   0  0  0  0  0  0  0  0  0  0  0  0
    6.0167    8.4478   21.1089 C   0  0  0  0  0  0  0  0  0  0  0  0
   11.0002   10.8890   20.0262 C   0  0  0  0  0  0  0  0  0  0  0  0
    2.1721    7.7393   20.0315 O   0  0  0  0  0  0  0  0  0  0  0  0
    9.1107   10.3880   21.3769 N   0  0  0  0  0  0  0  0  0  0  0  0
    3.9102    9.2008   20.3124 C   0  0  0  0  0  0  0  0  0  0  0  0
   12.7292   10.9960   18.4597 C   0  0  0  0  0  0  0  0  0  0  0  0
    9.3798    6.6793   23.6625 C   0  0  0  0  0  0  0  0  0  0  0  0
   14.7425   10.0739   19.0802 O   0  0  0  0  0  0  0  0  0  0  0  0
    5.1894    9.4673   20.7118 C   0  0  0  0  0  0  0  0  0  0  0  0
    7.3773    8.8224   21.4870 C   0  0  0  0  0  0  0  0  0  0  0  0
    8.4391    6.6439   21.0235 C   0  0  0  0  0  0  0  0  0  0  0  0
    9.6494   11.1353   20.4167 C   0  0  0  0  0  0  0  0  0  0  0  0
    8.1431    7.6829   21.9046 C   0  0  0  0  0  0  0  0  0  0  0  0
    7.7796   10.1314   21.5115 N   0  0  0  0  0  0  0  0  0  0  0  0
    9.2768    5.6183   21.4437 C   0  0  0  0  0  0  0  0  0  0  0  0
    8.6315    7.7322   23.1768 C   0  0  0  0  0  0  0  0  0  0  0  0
   13.0537    9.9821   20.5781 C   0  0  0  0  0  0  0  0  0  0  0  0
   10.3850    4.6575   23.2386 O   0  0  0  0  0  0  0  0  0  0  0  0
    4.2069    6.8450   20.7994 C   0  0  0  0  0  0  0  0  0  0  0  0
    3.0726   10.1043   19.8522 O   0  0  0  0  0  0  0  0  0  0  0  0
    5.5057    7.1196   21.1155 C   0  0  0  0  0  0  0  0  0  0  0  0
    7.0367   11.0229   21.9948 O   0  0  0  0  0  0  0  0  0  0  0  0
  1  8  4  0
  1 12  4  0
  2  9  1  0
  2 11  4  0
  2 25  4  0
  3 12  4  0
  3 14  1  0
  3 23  4  0
  4 13  4  0
  4 21  4  0
  4 24  1  0
  5  8  4  0
  5 23  4  0
  6 18  2  0
  7 15  4  0
  7 16  1  0
  7 27  4  0
  8 18  1  0
 10 18  1  0
 10 20  1  0
 11 15  4  0
 11 26  1  0
 13 22  4  0
 16 19  1  0
 16 20  2  0
 17 19  4  0
 17 21  4  0
 19 22  4  0
 20 28  1  0
 25 27  4  0
M  END
$$$$

 Created by Python create_sdf_string function

 28 30  0  0  0  0  0  0  0  0999 V2000
   11.4592   11.2893   18.7941 C   0  0  0  0  0  0  0  0  0  0  0  0
    3.4202    7.9009   20.3866 C   0  0  0  0  0  0  0  0  0  0  0  0
   13.5280   10.3522   19.3586 C   0  0  0  0  0  0  0  0  0  0  0  0
    9.6923    5.6468   22.7891 C   0  0  0  0  0  0  0  0  0  0  0  0
   11.7756   10.2554   20.8841 N   0  0  0  0  0  0  0  0  0  0  0  0
    8.9876   11.9370   19.8757 O   0  0  0  0  0  0  0  0  0  0  0  0
    6.0167    8.4478   21.1089 C   0  0  0  0  0  0  0  0  0  0  0  0
   11.0002   10.8890   20.0262 C   0  0  0  0  0  0  0  0  0  0  0  0
    2.1721    7.7393   20.0315 O   0  0  0  0  0  0  0  0  0  0  0  0
    9.1107   10.3880   21.3769 N   0  0  0  0  0  0  0  0  0  0  0  0
    3.9102    9.2008   20.3124 C   0  0  0  0  0  0  0  0  0  0  0  0
   12.7292   10.9960   18.4597 C   0  0  0  0  0  0  0  0  0  0  0  0
    9.3798    6.6793   23.6625 C   0  0  0  0  0  0  0  0  0  0  0  0
   14.7425   10.0739   19.0802 O   0  0  0  0  0  0  0  0  0  0  0  0
    5.1894    9.4673   20.7118 C   0  0  0  0  0  0  0  0  0  0  0  0
    7.3773    8.8224   21.4870 C   0  0  0  0  0  0  0  0  0  0  0  0
    8.4391    6.6439   21.0235 C   0  0  0  0  0  0  0  0  0  0  0  0
    9.6494   11.1353   20.4167 C   0  0  0  0  0  0  0  0  0  0  0  0
    8.1431    7.6829   21.9046 C   0  0  0  0  0  0  0  0  0  0  0  0
    7.7796   10.1314   21.5115 N   0  0  0  0  0  0  0  0  0  0  0  0
    9.2768    5.6183   21.4437 C   0  0  0  0  0  0  0  0  0  0  0  0
    8.6315    7.7322   23.1768 C   0  0  0  0  0  0  0  0  0  0  0  0
   13.0537    9.9821   20.5781 C   0  0  0  0  0  0  0  0  0  0  0  0
   10.3850    4.6575   23.2386 O   0  0  0  0  0  0  0  0  0  0  0  0
    4.2069    6.8450   20.7994 C   0  0  0  0  0  0  0  0  0  0  0  0
    3.0726   10.1043   19.8522 O   0  0  0  0  0  0  0  0  0  0  0  0
    5.5057    7.1196   21.1155 C   0  0  0  0  0  0  0  0  0  0  0  0
    7.0367   11.0229   21.9948 O   0  0  0  0  0  0  0  0  0  0  0  0
  1  8  4  0
  1 12  4  0
  2  9  1  0
  2 11  4  0
  2 25  4  0
  3 12  4  0
  3 14  1  0
  3 23  4  0
  4 13  4  0
  4 21  4  0
  4 24  1  0
  5  8  4  0
  5 23  4  0
  6 18  2  0
  7 15  4  0
  7 16  1  0
  7 27  4  0
  8 18  1  0
 10 18  1  0
 10 20  1  0
 11 15  4  0
 11 26  1  0
 13 22  4  0
 16 19  1  0
 16 20  2  0
 17 19  4  0
 17 21  4  0
 19 22  4  0
 20 28  1  0
 25 27  4  0
M  END
$$$$

 Created by Python create_sdf_string function

 28 30  0  0  0  0  0  0  0  0999 V2000
   11.4592   11.2893   18.7941 C   0  0  0  0  0  0  0  0  0  0  0  0
    3.4202    7.9009   20.3866 C   0  0  0  0  0  0  0  0  0  0  0  0
   13.5280   10.3522   19.3586 C   0  0  0  0  0  0  0  0  0  0  0  0
    9.6923    5.6468   22.7891 C   0  0  0  0  0  0  0  0  0  0  0  0
   11.7756   10.2554   20.8841 N   0  0  0  0  0  0  0  0  0  0  0  0
    8.9876   11.9370   19.8757 O   0  0  0  0  0  0  0  0  0  0  0  0
    6.0167    8.4478   21.1089 C   0  0  0  0  0  0  0  0  0  0  0  0
   11.0002   10.8890   20.0262 C   0  0  0  0  0  0  0  0  0  0  0  0
    2.1721    7.7393   20.0315 O   0  0  0  0  0  0  0  0  0  0  0  0
    9.1107   10.3880   21.3769 N   0  0  0  0  0  0  0  0  0  0  0  0
    3.9102    9.2008   20.3124 C   0  0  0  0  0  0  0  0  0  0  0  0
   12.7292   10.9960   18.4597 C   0  0  0  0  0  0  0  0  0  0  0  0
    9.3798    6.6793   23.6625 C   0  0  0  0  0  0  0  0  0  0  0  0
   14.7425   10.0739   19.0802 O   0  0  0  0  0  0  0  0  0  0  0  0
    5.1894    9.4673   20.7118 C   0  0  0  0  0  0  0  0  0  0  0  0
    7.3773    8.8224   21.4870 C   0  0  0  0  0  0  0  0  0  0  0  0
    8.4391    6.6439   21.0235 C   0  0  0  0  0  0  0  0  0  0  0  0
    9.6494   11.1353   20.4167 C   0  0  0  0  0  0  0  0  0  0  0  0
    8.1431    7.6829   21.9046 C   0  0  0  0  0  0  0  0  0  0  0  0
    7.7796   10.1314   21.5115 N   0  0  0  0  0  0  0  0  0  0  0  0
    9.2768    5.6183   21.4437 C   0  0  0  0  0  0  0  0  0  0  0  0
    8.6315    7.7322   23.1768 C   0  0  0  0  0  0  0  0  0  0  0  0
   13.0537    9.9821   20.5781 C   0  0  0  0  0  0  0  0  0  0  0  0
   10.3850    4.6575   23.2386 O   0  0  0  0  0  0  0  0  0  0  0  0
    4.2069    6.8450   20.7994 C   0  0  0  0  0  0  0  0  0  0  0  0
    3.0726   10.1043   19.8522 O   0  0  0  0  0  0  0  0  0  0  0  0
    5.5057    7.1196   21.1155 C   0  0  0  0  0  0  0  0  0  0  0  0
    7.0367   11.0229   21.9948 O   0  0  0  0  0  0  0  0  0  0  0  0
  1  8  4  0
  1 12  4  0
  2  9  1  0
  2 11  4  0
  2 25  4  0
  3 12  4  0
  3 14  1  0
  3 23  4  0
  4 13  4  0
  4 21  4  0
  4 24  1  0
  5  8  4  0
  5 23  4  0
  6 18  2  0
  7 15  4  0
  7 16  1  0
  7 27  4  0
  8 18  1  0
 10 18  1  0
 10 20  1  0
 11 15  4  0
 11 26  1  0
 13 22  4  0
 16 19  1  0
 16 20  2  0
 17 19  4  0
 17 21  4  0
 19 22  4  0
 20 28  1  0
 25 27  4  0
M  END
$$$$

 Created by Python create_sdf_string function

 28 30  0  0  0  0  0  0  0  0999 V2000
   11.4592   11.2893   18.7941 C   0  0  0  0  0  0  0  0  0  0  0  0
    3.4202    7.9009   20.3866 C   0  0  0  0  0  0  0  0  0  0  0  0
   13.5280   10.3522   19.3586 C   0  0  0  0  0  0  0  0  0  0  0  0
    9.6923    5.6468   22.7891 C   0  0  0  0  0  0  0  0  0  0  0  0
   11.7756   10.2554   20.8841 N   0  0  0  0  0  0  0  0  0  0  0  0
    8.9876   11.9370   19.8757 O   0  0  0  0  0  0  0  0  0  0  0  0
    6.0167    8.4478   21.1089 C   0  0  0  0  0  0  0  0  0  0  0  0
   11.0002   10.8890   20.0262 C   0  0  0  0  0  0  0  0  0  0  0  0
    2.1721    7.7393   20.0315 O   0  0  0  0  0  0  0  0  0  0  0  0
    9.1107   10.3880   21.3769 N   0  0  0  0  0  0  0  0  0  0  0  0
    3.9102    9.2008   20.3124 C   0  0  0  0  0  0  0  0  0  0  0  0
   12.7292   10.9960   18.4597 C   0  0  0  0  0  0  0  0  0  0  0  0
    9.3798    6.6793   23.6625 C   0  0  0  0  0  0  0  0  0  0  0  0
   14.7425   10.0739   19.0802 O   0  0  0  0  0  0  0  0  0  0  0  0
    5.1894    9.4673   20.7118 C   0  0  0  0  0  0  0  0  0  0  0  0
    7.3773    8.8224   21.4870 C   0  0  0  0  0  0  0  0  0  0  0  0
    8.4391    6.6439   21.0235 C   0  0  0  0  0  0  0  0  0  0  0  0
    9.6494   11.1353   20.4167 C   0  0  0  0  0  0  0  0  0  0  0  0
    8.1431    7.6829   21.9046 C   0  0  0  0  0  0  0  0  0  0  0  0
    7.7796   10.1314   21.5115 N   0  0  0  0  0  0  0  0  0  0  0  0
    9.2768    5.6183   21.4437 C   0  0  0  0  0  0  0  0  0  0  0  0
    8.6315    7.7322   23.1768 C   0  0  0  0  0  0  0  0  0  0  0  0
   13.0537    9.9821   20.5781 C   0  0  0  0  0  0  0  0  0  0  0  0
   10.3850    4.6575   23.2386 O   0  0  0  0  0  0  0  0  0  0  0  0
    4.2069    6.8450   20.7994 C   0  0  0  0  0  0  0  0  0  0  0  0
    3.0726   10.1043   19.8522 O   0  0  0  0  0  0  0  0  0  0  0  0
    5.5057    7.1196   21.1155 C   0  0  0  0  0  0  0  0  0  0  0  0
    7.0367   11.0229   21.9948 O   0  0  0  0  0  0  0  0  0  0  0  0
  1  8  4  0
  1 12  4  0
  2  9  1  0
  2 11  4  0
  2 25  4  0
  3 12  4  0
  3 14  1  0
  3 23  4  0
  4 13  4  0
  4 21  4  0
  4 24  1  0
  5  8  4  0
  5 23  4  0
  6 18  2  0
  7 15  4  0
  7 16  1  0
  7 27  4  0
  8 18  1  0
 10 18  1  0
 10 20  1  0
 11 15  4  0
 11 26  1  0
 13 22  4  0
 16 19  1  0
 16 20  2  0
 17 19  4  0
 17 21  4  0
 19 22  4  0
 20 28  1  0
 25 27  4  0
M  END
$$$$

 Created by Python create_sdf_string function

 28 30  0  0  0  0  0  0  0  0999 V2000
   11.4592   11.2893   18.7941 C   0  0  0  0  0  0  0  0  0  0  0  0
    3.4202    7.9009   20.3866 C   0  0  0  0  0  0  0  0  0  0  0  0
   13.5280   10.3522   19.3586 C   0  0  0  0  0  0  0  0  0  0  0  0
    9.6923    5.6468   22.7891 C   0  0  0  0  0  0  0  0  0  0  0  0
   11.7756   10.2554   20.8841 N   0  0  0  0  0  0  0  0  0  0  0  0
    8.9876   11.9370   19.8757 O   0  0  0  0  0  0  0  0  0  0  0  0
    6.0167    8.4478   21.1089 C   0  0  0  0  0  0  0  0  0  0  0  0
   11.0002   10.8890   20.0262 C   0  0  0  0  0  0  0  0  0  0  0  0
    2.1721    7.7393   20.0315 O   0  0  0  0  0  0  0  0  0  0  0  0
    9.1107   10.3880   21.3769 N   0  0  0  0  0  0  0  0  0  0  0  0
    3.9102    9.2008   20.3124 C   0  0  0  0  0  0  0  0  0  0  0  0
   12.7292   10.9960   18.4597 C   0  0  0  0  0  0  0  0  0  0  0  0
    9.3798    6.6793   23.6625 C   0  0  0  0  0  0  0  0  0  0  0  0
   14.7425   10.0739   19.0802 O   0  0  0  0  0  0  0  0  0  0  0  0
    5.1894    9.4673   20.7118 C   0  0  0  0  0  0  0  0  0  0  0  0
    7.3773    8.8224   21.4870 C   0  0  0  0  0  0  0  0  0  0  0  0
    8.4391    6.6439   21.0235 C   0  0  0  0  0  0  0  0  0  0  0  0
    9.6494   11.1353   20.4167 C   0  0  0  0  0  0  0  0  0  0  0  0
    8.1431    7.6829   21.9046 C   0  0  0  0  0  0  0  0  0  0  0  0
    7.7796   10.1314   21.5115 N   0  0  0  0  0  0  0  0  0  0  0  0
    9.2768    5.6183   21.4437 C   0  0  0  0  0  0  0  0  0  0  0  0
    8.6315    7.7322   23.1768 C   0  0  0  0  0  0  0  0  0  0  0  0
   13.0537    9.9821   20.5781 C   0  0  0  0  0  0  0  0  0  0  0  0
   10.3850    4.6575   23.2386 O   0  0  0  0  0  0  0  0  0  0  0  0
    4.2069    6.8450   20.7994 C   0  0  0  0  0  0  0  0  0  0  0  0
    3.0726   10.1043   19.8522 O   0  0  0  0  0  0  0  0  0  0  0  0
    5.5057    7.1196   21.1155 C   0  0  0  0  0  0  0  0  0  0  0  0
    7.0367   11.0229   21.9948 O   0  0  0  0  0  0  0  0  0  0  0  0
  1  8  4  0
  1 12  4  0
  2  9  1  0
  2 11  4  0
  2 25  4  0
  3 12  4  0
  3 14  1  0
  3 23  4  0
  4 13  4  0
  4 21  4  0
  4 24  1  0
  5  8  4  0
  5 23  4  0
  6 18  2  0
  7 15  4  0
  7 16  1  0
  7 27  4  0
  8 18  1  0
 10 18  1  0
 10 20  1  0
 11 15  4  0
 11 26  1  0
 13 22  4  0
 16 19  1  0
 16 20  2  0
 17 19  4  0
 17 21  4  0
 19 22  4  0
 20 28  1  0
 25 27  4  0
M  END
$$$$

 Created by Python create_sdf_string function

 28 30  0  0  0  0  0  0  0  0999 V2000
   11.4592   11.2893   18.7941 C   0  0  0  0  0  0  0  0  0  0  0  0
    3.4202    7.9009   20.3866 C   0  0  0  0  0  0  0  0  0  0  0  0
   13.5280   10.3522   19.3586 C   0  0  0  0  0  0  0  0  0  0  0  0
    9.6923    5.6468   22.7891 C   0  0  0  0  0  0  0  0  0  0  0  0
   11.7756   10.2554   20.8841 N   0  0  0  0  0  0  0  0  0  0  0  0
    8.9876   11.9370   19.8757 O   0  0  0  0  0  0  0  0  0  0  0  0
    6.0167    8.4478   21.1089 C   0  0  0  0  0  0  0  0  0  0  0  0
   11.0002   10.8890   20.0262 C   0  0  0  0  0  0  0  0  0  0  0  0
    2.1721    7.7393   20.0315 O   0  0  0  0  0  0  0  0  0  0  0  0
    9.1107   10.3880   21.3769 N   0  0  0  0  0  0  0  0  0  0  0  0
    3.9102    9.2008   20.3124 C   0  0  0  0  0  0  0  0  0  0  0  0
   12.7292   10.9960   18.4597 C   0  0  0  0  0  0  0  0  0  0  0  0
    9.3798    6.6793   23.6625 C   0  0  0  0  0  0  0  0  0  0  0  0
   14.7425   10.0739   19.0802 O   0  0  0  0  0  0  0  0  0  0  0  0
    5.1894    9.4673   20.7118 C   0  0  0  0  0  0  0  0  0  0  0  0
    7.3773    8.8224   21.4870 C   0  0  0  0  0  0  0  0  0  0  0  0
    8.4391    6.6439   21.0235 C   0  0  0  0  0  0  0  0  0  0  0  0
    9.6494   11.1353   20.4167 C   0  0  0  0  0  0  0  0  0  0  0  0
    8.1431    7.6829   21.9046 C   0  0  0  0  0  0  0  0  0  0  0  0
    7.7796   10.1314   21.5115 N   0  0  0  0  0  0  0  0  0  0  0  0
    9.2768    5.6183   21.4437 C   0  0  0  0  0  0  0  0  0  0  0  0
    8.6315    7.7322   23.1768 C   0  0  0  0  0  0  0  0  0  0  0  0
   13.0537    9.9821   20.5781 C   0  0  0  0  0  0  0  0  0  0  0  0
   10.3850    4.6575   23.2386 O   0  0  0  0  0  0  0  0  0  0  0  0
    4.2069    6.8450   20.7994 C   0  0  0  0  0  0  0  0  0  0  0  0
    3.0726   10.1043   19.8522 O   0  0  0  0  0  0  0  0  0  0  0  0
    5.5057    7.1196   21.1155 C   0  0  0  0  0  0  0  0  0  0  0  0
    7.0367   11.0229   21.9948 O   0  0  0  0  0  0  0  0  0  0  0  0
  1  8  4  0
  1 12  4  0
  2  9  1  0
  2 11  4  0
  2 25  4  0
  3 12  4  0
  3 14  1  0
  3 23  4  0
  4 13  4  0
  4 21  4  0
  4 24  1  0
  5  8  4  0
  5 23  4  0
  6 18  2  0
  7 15  4  0
  7 16  1  0
  7 27  4  0
  8 18  1  0
 10 18  1  0
 10 20  1  0
 11 15  4  0
 11 26  1  0
 13 22  4  0
 16 19  1  0
 16 20  2  0
 17 19  4  0
 17 21  4  0
 19 22  4  0
 20 28  1  0
 25 27  4  0
M  END
$$$$

 Created by Python create_sdf_string function

 28 30  0  0  0  0  0  0  0  0999 V2000
   11.4592   11.2893   18.7941 C   0  0  0  0  0  0  0  0  0  0  0  0
    3.4202    7.9009   20.3866 C   0  0  0  0  0  0  0  0  0  0  0  0
   13.5280   10.3522   19.3586 C   0  0  0  0  0  0  0  0  0  0  0  0
    9.6923    5.6468   22.7891 C   0  0  0  0  0  0  0  0  0  0  0  0
   11.7756   10.2554   20.8841 N   0  0  0  0  0  0  0  0  0  0  0  0
    8.9876   11.9370   19.8757 O   0  0  0  0  0  0  0  0  0  0  0  0
    6.0167    8.4478   21.1089 C   0  0  0  0  0  0  0  0  0  0  0  0
   11.0002   10.8890   20.0262 C   0  0  0  0  0  0  0  0  0  0  0  0
    2.1721    7.7393   20.0315 O   0  0  0  0  0  0  0  0  0  0  0  0
    9.1107   10.3880   21.3769 N   0  0  0  0  0  0  0  0  0  0  0  0
    3.9102    9.2008   20.3124 C   0  0  0  0  0  0  0  0  0  0  0  0
   12.7292   10.9960   18.4597 C   0  0  0  0  0  0  0  0  0  0  0  0
    9.3798    6.6793   23.6625 C   0  0  0  0  0  0  0  0  0  0  0  0
   14.7425   10.0739   19.0802 O   0  0  0  0  0  0  0  0  0  0  0  0
    5.1894    9.4673   20.7118 C   0  0  0  0  0  0  0  0  0  0  0  0
    7.3773    8.8224   21.4870 C   0  0  0  0  0  0  0  0  0  0  0  0
    8.4391    6.6439   21.0235 C   0  0  0  0  0  0  0  0  0  0  0  0
    9.6494   11.1353   20.4167 C   0  0  0  0  0  0  0  0  0  0  0  0
    8.1431    7.6829   21.9046 C   0  0  0  0  0  0  0  0  0  0  0  0
    7.7796   10.1314   21.5115 N   0  0  0  0  0  0  0  0  0  0  0  0
    9.2768    5.6183   21.4437 C   0  0  0  0  0  0  0  0  0  0  0  0
    8.6315    7.7322   23.1768 C   0  0  0  0  0  0  0  0  0  0  0  0
   13.0537    9.9821   20.5781 C   0  0  0  0  0  0  0  0  0  0  0  0
   10.3850    4.6575   23.2386 O   0  0  0  0  0  0  0  0  0  0  0  0
    4.2069    6.8450   20.7994 C   0  0  0  0  0  0  0  0  0  0  0  0
    3.0726   10.1043   19.8522 O   0  0  0  0  0  0  0  0  0  0  0  0
    5.5057    7.1196   21.1155 C   0  0  0  0  0  0  0  0  0  0  0  0
    7.0367   11.0229   21.9948 O   0  0  0  0  0  0  0  0  0  0  0  0
  1  8  4  0
  1 12  4  0
  2  9  1  0
  2 11  4  0
  2 25  4  0
  3 12  4  0
  3 14  1  0
  3 23  4  0
  4 13  4  0
  4 21  4  0
  4 24  1  0
  5  8  4  0
  5 23  4  0
  6 18  2  0
  7 15  4  0
  7 16  1  0
  7 27  4  0
  8 18  1  0
 10 18  1  0
 10 20  1  0
 11 15  4  0
 11 26  1  0
 13 22  4  0
 16 19  1  0
 16 20  2  0
 17 19  4  0
 17 21  4  0
 19 22  4  0
 20 28  1  0
 25 27  4  0
M  END
$$$$

 Created by Python create_sdf_string function

 28 30  0  0  0  0  0  0  0  0999 V2000
   11.4592   11.2893   18.7941 C   0  0  0  0  0  0  0  0  0  0  0  0
    3.4202    7.9009   20.3866 C   0  0  0  0  0  0  0  0  0  0  0  0
   13.5280   10.3522   19.3586 C   0  0  0  0  0  0  0  0  0  0  0  0
    9.6923    5.6468   22.7891 C   0  0  0  0  0  0  0  0  0  0  0  0
   11.7756   10.2554   20.8841 N   0  0  0  0  0  0  0  0  0  0  0  0
    8.9876   11.9370   19.8757 O   0  0  0  0  0  0  0  0  0  0  0  0
    6.0167    8.4478   21.1089 C   0  0  0  0  0  0  0  0  0  0  0  0
   11.0002   10.8890   20.0262 C   0  0  0  0  0  0  0  0  0  0  0  0
    2.1721    7.7393   20.0315 O   0  0  0  0  0  0  0  0  0  0  0  0
    9.1107   10.3880   21.3769 N   0  0  0  0  0  0  0  0  0  0  0  0
    3.9102    9.2008   20.3124 C   0  0  0  0  0  0  0  0  0  0  0  0
   12.7292   10.9960   18.4597 C   0  0  0  0  0  0  0  0  0  0  0  0
    9.3798    6.6793   23.6625 C   0  0  0  0  0  0  0  0  0  0  0  0
   14.7425   10.0739   19.0802 O   0  0  0  0  0  0  0  0  0  0  0  0
    5.1894    9.4673   20.7118 C   0  0  0  0  0  0  0  0  0  0  0  0
    7.3773    8.8224   21.4870 C   0  0  0  0  0  0  0  0  0  0  0  0
    8.4391    6.6439   21.0235 C   0  0  0  0  0  0  0  0  0  0  0  0
    9.6494   11.1353   20.4167 C   0  0  0  0  0  0  0  0  0  0  0  0
    8.1431    7.6829   21.9046 C   0  0  0  0  0  0  0  0  0  0  0  0
    7.7796   10.1314   21.5115 N   0  0  0  0  0  0  0  0  0  0  0  0
    9.2768    5.6183   21.4437 C   0  0  0  0  0  0  0  0  0  0  0  0
    8.6315    7.7322   23.1768 C   0  0  0  0  0  0  0  0  0  0  0  0
   13.0537    9.9821   20.5781 C   0  0  0  0  0  0  0  0  0  0  0  0
   10.3850    4.6575   23.2386 O   0  0  0  0  0  0  0  0  0  0  0  0
    4.2069    6.8450   20.7994 C   0  0  0  0  0  0  0  0  0  0  0  0
    3.0726   10.1043   19.8522 O   0  0  0  0  0  0  0  0  0  0  0  0
    5.5057    7.1196   21.1155 C   0  0  0  0  0  0  0  0  0  0  0  0
    7.0367   11.0229   21.9948 O   0  0  0  0  0  0  0  0  0  0  0  0
  1  8  4  0
  1 12  4  0
  2  9  1  0
  2 11  4  0
  2 25  4  0
  3 12  4  0
  3 14  1  0
  3 23  4  0
  4 13  4  0
  4 21  4  0
  4 24  1  0
  5  8  4  0
  5 23  4  0
  6 18  2  0
  7 15  4  0
  7 16  1  0
  7 27  4  0
  8 18  1  0
 10 18  1  0
 10 20  1  0
 11 15  4  0
 11 26  1  0
 13 22  4  0
 16 19  1  0
 16 20  2  0
 17 19  4  0
 17 21  4  0
 19 22  4  0
 20 28  1  0
 25 27  4  0
M  END
$$$$

 Created by Python create_sdf_string function

 28 30  0  0  0  0  0  0  0  0999 V2000
   11.4592   11.2893   18.7941 C   0  0  0  0  0  0  0  0  0  0  0  0
    3.4202    7.9009   20.3866 C   0  0  0  0  0  0  0  0  0  0  0  0
   13.5280   10.3522   19.3586 C   0  0  0  0  0  0  0  0  0  0  0  0
    9.6923    5.6468   22.7891 C   0  0  0  0  0  0  0  0  0  0  0  0
   11.7756   10.2554   20.8841 N   0  0  0  0  0  0  0  0  0  0  0  0
    8.9876   11.9370   19.8757 O   0  0  0  0  0  0  0  0  0  0  0  0
    6.0167    8.4478   21.1089 C   0  0  0  0  0  0  0  0  0  0  0  0
   11.0002   10.8890   20.0262 C   0  0  0  0  0  0  0  0  0  0  0  0
    2.1721    7.7393   20.0315 O   0  0  0  0  0  0  0  0  0  0  0  0
    9.1107   10.3880   21.3769 N   0  0  0  0  0  0  0  0  0  0  0  0
    3.9102    9.2008   20.3124 C   0  0  0  0  0  0  0  0  0  0  0  0
   12.7292   10.9960   18.4597 C   0  0  0  0  0  0  0  0  0  0  0  0
    9.3798    6.6793   23.6625 C   0  0  0  0  0  0  0  0  0  0  0  0
   14.7425   10.0739   19.0802 O   0  0  0  0  0  0  0  0  0  0  0  0
    5.1894    9.4673   20.7118 C   0  0  0  0  0  0  0  0  0  0  0  0
    7.3773    8.8224   21.4870 C   0  0  0  0  0  0  0  0  0  0  0  0
    8.4391    6.6439   21.0235 C   0  0  0  0  0  0  0  0  0  0  0  0
    9.6494   11.1353   20.4167 C   0  0  0  0  0  0  0  0  0  0  0  0
    8.1431    7.6829   21.9046 C   0  0  0  0  0  0  0  0  0  0  0  0
    7.7796   10.1314   21.5115 N   0  0  0  0  0  0  0  0  0  0  0  0
    9.2768    5.6183   21.4437 C   0  0  0  0  0  0  0  0  0  0  0  0
    8.6315    7.7322   23.1768 C   0  0  0  0  0  0  0  0  0  0  0  0
   13.0537    9.9821   20.5781 C   0  0  0  0  0  0  0  0  0  0  0  0
   10.3850    4.6575   23.2386 O   0  0  0  0  0  0  0  0  0  0  0  0
    4.2069    6.8450   20.7994 C   0  0  0  0  0  0  0  0  0  0  0  0
    3.0726   10.1043   19.8522 O   0  0  0  0  0  0  0  0  0  0  0  0
    5.5057    7.1196   21.1155 C   0  0  0  0  0  0  0  0  0  0  0  0
    7.0367   11.0229   21.9948 O   0  0  0  0  0  0  0  0  0  0  0  0
  1  8  4  0
  1 12  4  0
  2  9  1  0
  2 11  4  0
  2 25  4  0
  3 12  4  0
  3 14  1  0
  3 23  4  0
  4 13  4  0
  4 21  4  0
  4 24  1  0
  5  8  4  0
  5 23  4  0
  6 18  2  0
  7 15  4  0
  7 16  1  0
  7 27  4  0
  8 18  1  0
 10 18  1  0
 10 20  1  0
 11 15  4  0
 11 26  1  0
 13 22  4  0
 16 19  1  0
 16 20  2  0
 17 19  4  0
 17 21  4  0
 19 22  4  0
 20 28  1  0
 25 27  4  0
M  END
$$$$

 Created by Python create_sdf_string function

 28 30  0  0  0  0  0  0  0  0999 V2000
   11.4592   11.2893   18.7941 C   0  0  0  0  0  0  0  0  0  0  0  0
    3.4202    7.9009   20.3866 C   0  0  0  0  0  0  0  0  0  0  0  0
   13.5280   10.3522   19.3586 C   0  0  0  0  0  0  0  0  0  0  0  0
    9.6923    5.6468   22.7891 C   0  0  0  0  0  0  0  0  0  0  0  0
   11.7756   10.2554   20.8841 N   0  0  0  0  0  0  0  0  0  0  0  0
    8.9876   11.9370   19.8757 O   0  0  0  0  0  0  0  0  0  0  0  0
    6.0167    8.4478   21.1089 C   0  0  0  0  0  0  0  0  0  0  0  0
   11.0002   10.8890   20.0262 C   0  0  0  0  0  0  0  0  0  0  0  0
    2.1721    7.7393   20.0315 O   0  0  0  0  0  0  0  0  0  0  0  0
    9.1107   10.3880   21.3769 N   0  0  0  0  0  0  0  0  0  0  0  0
    3.9102    9.2008   20.3124 C   0  0  0  0  0  0  0  0  0  0  0  0
   12.7292   10.9960   18.4597 C   0  0  0  0  0  0  0  0  0  0  0  0
    9.3798    6.6793   23.6625 C   0  0  0  0  0  0  0  0  0  0  0  0
   14.7425   10.0739   19.0802 O   0  0  0  0  0  0  0  0  0  0  0  0
    5.1894    9.4673   20.7118 C   0  0  0  0  0  0  0  0  0  0  0  0
    7.3773    8.8224   21.4870 C   0  0  0  0  0  0  0  0  0  0  0  0
    8.4391    6.6439   21.0235 C   0  0  0  0  0  0  0  0  0  0  0  0
    9.6494   11.1353   20.4167 C   0  0  0  0  0  0  0  0  0  0  0  0
    8.1431    7.6829   21.9046 C   0  0  0  0  0  0  0  0  0  0  0  0
    7.7796   10.1314   21.5115 N   0  0  0  0  0  0  0  0  0  0  0  0
    9.2768    5.6183   21.4437 C   0  0  0  0  0  0  0  0  0  0  0  0
    8.6315    7.7322   23.1768 C   0  0  0  0  0  0  0  0  0  0  0  0
   13.0537    9.9821   20.5781 C   0  0  0  0  0  0  0  0  0  0  0  0
   10.3850    4.6575   23.2386 O   0  0  0  0  0  0  0  0  0  0  0  0
    4.2069    6.8450   20.7994 C   0  0  0  0  0  0  0  0  0  0  0  0
    3.0726   10.1043   19.8522 O   0  0  0  0  0  0  0  0  0  0  0  0
    5.5057    7.1196   21.1155 C   0  0  0  0  0  0  0  0  0  0  0  0
    7.0367   11.0229   21.9948 O   0  0  0  0  0  0  0  0  0  0  0  0
  1  8  4  0
  1 12  4  0
  2  9  1  0
  2 11  4  0
  2 25  4  0
  3 12  4  0
  3 14  1  0
  3 23  4  0
  4 13  4  0
  4 21  4  0
  4 24  1  0
  5  8  4  0
  5 23  4  0
  6 18  2  0
  7 15  4  0
  7 16  1  0
  7 27  4  0
  8 18  1  0
 10 18  1  0
 10 20  1  0
 11 15  4  0
 11 26  1  0
 13 22  4  0
 16 19  1  0
 16 20  2  0
 17 19  4  0
 17 21  4  0
 19 22  4  0
 20 28  1  0
 25 27  4  0
M  END
$$$$

 Created by Python create_sdf_string function

 28 30  0  0  0  0  0  0  0  0999 V2000
   11.4592   11.2893   18.7941 C   0  0  0  0  0  0  0  0  0  0  0  0
    3.4202    7.9009   20.3866 C   0  0  0  0  0  0  0  0  0  0  0  0
   13.5280   10.3522   19.3586 C   0  0  0  0  0  0  0  0  0  0  0  0
    9.6923    5.6468   22.7891 C   0  0  0  0  0  0  0  0  0  0  0  0
   11.7756   10.2554   20.8841 N   0  0  0  0  0  0  0  0  0  0  0  0
    8.9876   11.9370   19.8757 O   0  0  0  0  0  0  0  0  0  0  0  0
    6.0167    8.4478   21.1089 C   0  0  0  0  0  0  0  0  0  0  0  0
   11.0002   10.8890   20.0262 C   0  0  0  0  0  0  0  0  0  0  0  0
    2.1721    7.7393   20.0315 O   0  0  0  0  0  0  0  0  0  0  0  0
    9.1107   10.3880   21.3769 N   0  0  0  0  0  0  0  0  0  0  0  0
    3.9102    9.2008   20.3124 C   0  0  0  0  0  0  0  0  0  0  0  0
   12.7292   10.9960   18.4597 C   0  0  0  0  0  0  0  0  0  0  0  0
    9.3798    6.6793   23.6625 C   0  0  0  0  0  0  0  0  0  0  0  0
   14.7425   10.0739   19.0802 O   0  0  0  0  0  0  0  0  0  0  0  0
    5.1894    9.4673   20.7118 C   0  0  0  0  0  0  0  0  0  0  0  0
    7.3773    8.8224   21.4870 C   0  0  0  0  0  0  0  0  0  0  0  0
    8.4391    6.6439   21.0235 C   0  0  0  0  0  0  0  0  0  0  0  0
    9.6494   11.1353   20.4167 C   0  0  0  0  0  0  0  0  0  0  0  0
    8.1431    7.6829   21.9046 C   0  0  0  0  0  0  0  0  0  0  0  0
    7.7796   10.1314   21.5115 N   0  0  0  0  0  0  0  0  0  0  0  0
    9.2768    5.6183   21.4437 C   0  0  0  0  0  0  0  0  0  0  0  0
    8.6315    7.7322   23.1768 C   0  0  0  0  0  0  0  0  0  0  0  0
   13.0537    9.9821   20.5781 C   0  0  0  0  0  0  0  0  0  0  0  0
   10.3850    4.6575   23.2386 O   0  0  0  0  0  0  0  0  0  0  0  0
    4.2069    6.8450   20.7994 C   0  0  0  0  0  0  0  0  0  0  0  0
    3.0726   10.1043   19.8522 O   0  0  0  0  0  0  0  0  0  0  0  0
    5.5057    7.1196   21.1155 C   0  0  0  0  0  0  0  0  0  0  0  0
    7.0367   11.0229   21.9948 O   0  0  0  0  0  0  0  0  0  0  0  0
  1  8  4  0
  1 12  4  0
  2  9  1  0
  2 11  4  0
  2 25  4  0
  3 12  4  0
  3 14  1  0
  3 23  4  0
  4 13  4  0
  4 21  4  0
  4 24  1  0
  5  8  4  0
  5 23  4  0
  6 18  2  0
  7 15  4  0
  7 16  1  0
  7 27  4  0
  8 18  1  0
 10 18  1  0
 10 20  1  0
 11 15  4  0
 11 26  1  0
 13 22  4  0
 16 19  1  0
 16 20  2  0
 17 19  4  0
 17 21  4  0
 19 22  4  0
 20 28  1  0
 25 27  4  0
M  END
$$$$

 Created by Python create_sdf_string function

 28 30  0  0  0  0  0  0  0  0999 V2000
   11.4592   11.2893   18.7941 C   0  0  0  0  0  0  0  0  0  0  0  0
    3.4202    7.9009   20.3866 C   0  0  0  0  0  0  0  0  0  0  0  0
   13.5280   10.3522   19.3586 C   0  0  0  0  0  0  0  0  0  0  0  0
    9.6923    5.6468   22.7891 C   0  0  0  0  0  0  0  0  0  0  0  0
   11.7756   10.2554   20.8841 N   0  0  0  0  0  0  0  0  0  0  0  0
    8.9876   11.9370   19.8757 O   0  0  0  0  0  0  0  0  0  0  0  0
    6.0167    8.4478   21.1089 C   0  0  0  0  0  0  0  0  0  0  0  0
   11.0002   10.8890   20.0262 C   0  0  0  0  0  0  0  0  0  0  0  0
    2.1721    7.7393   20.0315 O   0  0  0  0  0  0  0  0  0  0  0  0
    9.1107   10.3880   21.3769 N   0  0  0  0  0  0  0  0  0  0  0  0
    3.9102    9.2008   20.3124 C   0  0  0  0  0  0  0  0  0  0  0  0
   12.7292   10.9960   18.4597 C   0  0  0  0  0  0  0  0  0  0  0  0
    9.3798    6.6793   23.6625 C   0  0  0  0  0  0  0  0  0  0  0  0
   14.7425   10.0739   19.0802 O   0  0  0  0  0  0  0  0  0  0  0  0
    5.1894    9.4673   20.7118 C   0  0  0  0  0  0  0  0  0  0  0  0
    7.3773    8.8224   21.4870 C   0  0  0  0  0  0  0  0  0  0  0  0
    8.4391    6.6439   21.0235 C   0  0  0  0  0  0  0  0  0  0  0  0
    9.6494   11.1353   20.4167 C   0  0  0  0  0  0  0  0  0  0  0  0
    8.1431    7.6829   21.9046 C   0  0  0  0  0  0  0  0  0  0  0  0
    7.7796   10.1314   21.5115 N   0  0  0  0  0  0  0  0  0  0  0  0
    9.2768    5.6183   21.4437 C   0  0  0  0  0  0  0  0  0  0  0  0
    8.6315    7.7322   23.1768 C   0  0  0  0  0  0  0  0  0  0  0  0
   13.0537    9.9821   20.5781 C   0  0  0  0  0  0  0  0  0  0  0  0
   10.3850    4.6575   23.2386 O   0  0  0  0  0  0  0  0  0  0  0  0
    4.2069    6.8450   20.7994 C   0  0  0  0  0  0  0  0  0  0  0  0
    3.0726   10.1043   19.8522 O   0  0  0  0  0  0  0  0  0  0  0  0
    5.5057    7.1196   21.1155 C   0  0  0  0  0  0  0  0  0  0  0  0
    7.0367   11.0229   21.9948 O   0  0  0  0  0  0  0  0  0  0  0  0
  1  8  4  0
  1 12  4  0
  2  9  1  0
  2 11  4  0
  2 25  4  0
  3 12  4  0
  3 14  1  0
  3 23  4  0
  4 13  4  0
  4 21  4  0
  4 24  1  0
  5  8  4  0
  5 23  4  0
  6 18  2  0
  7 15  4  0
  7 16  1  0
  7 27  4  0
  8 18  1  0
 10 18  1  0
 10 20  1  0
 11 15  4  0
 11 26  1  0
 13 22  4  0
 16 19  1  0
 16 20  2  0
 17 19  4  0
 17 21  4  0
 19 22  4  0
 20 28  1  0
 25 27  4  0
M  END
$$$$

 Created by Python create_sdf_string function

 28 30  0  0  0  0  0  0  0  0999 V2000
   11.4592   11.2893   18.7941 C   0  0  0  0  0  0  0  0  0  0  0  0
    3.4202    7.9009   20.3866 C   0  0  0  0  0  0  0  0  0  0  0  0
   13.5280   10.3522   19.3586 C   0  0  0  0  0  0  0  0  0  0  0  0
    9.6923    5.6468   22.7891 C   0  0  0  0  0  0  0  0  0  0  0  0
   11.7756   10.2554   20.8841 N   0  0  0  0  0  0  0  0  0  0  0  0
    8.9876   11.9370   19.8757 O   0  0  0  0  0  0  0  0  0  0  0  0
    6.0167    8.4478   21.1089 C   0  0  0  0  0  0  0  0  0  0  0  0
   11.0002   10.8890   20.0262 C   0  0  0  0  0  0  0  0  0  0  0  0
    2.1721    7.7393   20.0315 O   0  0  0  0  0  0  0  0  0  0  0  0
    9.1107   10.3880   21.3769 N   0  0  0  0  0  0  0  0  0  0  0  0
    3.9102    9.2008   20.3124 C   0  0  0  0  0  0  0  0  0  0  0  0
   12.7292   10.9960   18.4597 C   0  0  0  0  0  0  0  0  0  0  0  0
    9.3798    6.6793   23.6625 C   0  0  0  0  0  0  0  0  0  0  0  0
   14.7425   10.0739   19.0802 O   0  0  0  0  0  0  0  0  0  0  0  0
    5.1894    9.4673   20.7118 C   0  0  0  0  0  0  0  0  0  0  0  0
    7.3773    8.8224   21.4870 C   0  0  0  0  0  0  0  0  0  0  0  0
    8.4391    6.6439   21.0235 C   0  0  0  0  0  0  0  0  0  0  0  0
    9.6494   11.1353   20.4167 C   0  0  0  0  0  0  0  0  0  0  0  0
    8.1431    7.6829   21.9046 C   0  0  0  0  0  0  0  0  0  0  0  0
    7.7796   10.1314   21.5115 N   0  0  0  0  0  0  0  0  0  0  0  0
    9.2768    5.6183   21.4437 C   0  0  0  0  0  0  0  0  0  0  0  0
    8.6315    7.7322   23.1768 C   0  0  0  0  0  0  0  0  0  0  0  0
   13.0537    9.9821   20.5781 C   0  0  0  0  0  0  0  0  0  0  0  0
   10.3850    4.6575   23.2386 O   0  0  0  0  0  0  0  0  0  0  0  0
    4.2069    6.8450   20.7994 C   0  0  0  0  0  0  0  0  0  0  0  0
    3.0726   10.1043   19.8522 O   0  0  0  0  0  0  0  0  0  0  0  0
    5.5057    7.1196   21.1155 C   0  0  0  0  0  0  0  0  0  0  0  0
    7.0367   11.0229   21.9948 O   0  0  0  0  0  0  0  0  0  0  0  0
  1  8  4  0
  1 12  4  0
  2  9  1  0
  2 11  4  0
  2 25  4  0
  3 12  4  0
  3 14  1  0
  3 23  4  0
  4 13  4  0
  4 21  4  0
  4 24  1  0
  5  8  4  0
  5 23  4  0
  6 18  2  0
  7 15  4  0
  7 16  1  0
  7 27  4  0
  8 18  1  0
 10 18  1  0
 10 20  1  0
 11 15  4  0
 11 26  1  0
 13 22  4  0
 16 19  1  0
 16 20  2  0
 17 19  4  0
 17 21  4  0
 19 22  4  0
 20 28  1  0
 25 27  4  0
M  END
$$$$

 Created by Python create_sdf_string function

 28 30  0  0  0  0  0  0  0  0999 V2000
   11.4592   11.2893   18.7941 C   0  0  0  0  0  0  0  0  0  0  0  0
    3.4202    7.9009   20.3866 C   0  0  0  0  0  0  0  0  0  0  0  0
   13.5280   10.3522   19.3586 C   0  0  0  0  0  0  0  0  0  0  0  0
    9.6923    5.6468   22.7891 C   0  0  0  0  0  0  0  0  0  0  0  0
   11.7756   10.2554   20.8841 N   0  0  0  0  0  0  0  0  0  0  0  0
    8.9876   11.9370   19.8757 O   0  0  0  0  0  0  0  0  0  0  0  0
    6.0167    8.4478   21.1089 C   0  0  0  0  0  0  0  0  0  0  0  0
   11.0002   10.8890   20.0262 C   0  0  0  0  0  0  0  0  0  0  0  0
    2.1721    7.7393   20.0315 O   0  0  0  0  0  0  0  0  0  0  0  0
    9.1107   10.3880   21.3769 N   0  0  0  0  0  0  0  0  0  0  0  0
    3.9102    9.2008   20.3124 C   0  0  0  0  0  0  0  0  0  0  0  0
   12.7292   10.9960   18.4597 C   0  0  0  0  0  0  0  0  0  0  0  0
    9.3798    6.6793   23.6625 C   0  0  0  0  0  0  0  0  0  0  0  0
   14.7425   10.0739   19.0802 O   0  0  0  0  0  0  0  0  0  0  0  0
    5.1894    9.4673   20.7118 C   0  0  0  0  0  0  0  0  0  0  0  0
    7.3773    8.8224   21.4870 C   0  0  0  0  0  0  0  0  0  0  0  0
    8.4391    6.6439   21.0235 C   0  0  0  0  0  0  0  0  0  0  0  0
    9.6494   11.1353   20.4167 C   0  0  0  0  0  0  0  0  0  0  0  0
    8.1431    7.6829   21.9046 C   0  0  0  0  0  0  0  0  0  0  0  0
    7.7796   10.1314   21.5115 N   0  0  0  0  0  0  0  0  0  0  0  0
    9.2768    5.6183   21.4437 C   0  0  0  0  0  0  0  0  0  0  0  0
    8.6315    7.7322   23.1768 C   0  0  0  0  0  0  0  0  0  0  0  0
   13.0537    9.9821   20.5781 C   0  0  0  0  0  0  0  0  0  0  0  0
   10.3850    4.6575   23.2386 O   0  0  0  0  0  0  0  0  0  0  0  0
    4.2069    6.8450   20.7994 C   0  0  0  0  0  0  0  0  0  0  0  0
    3.0726   10.1043   19.8522 O   0  0  0  0  0  0  0  0  0  0  0  0
    5.5057    7.1196   21.1155 C   0  0  0  0  0  0  0  0  0  0  0  0
    7.0367   11.0229   21.9948 O   0  0  0  0  0  0  0  0  0  0  0  0
  1  8  4  0
  1 12  4  0
  2  9  1  0
  2 11  4  0
  2 25  4  0
  3 12  4  0
  3 14  1  0
  3 23  4  0
  4 13  4  0
  4 21  4  0
  4 24  1  0
  5  8  4  0
  5 23  4  0
  6 18  2  0
  7 15  4  0
  7 16  1  0
  7 27  4  0
  8 18  1  0
 10 18  1  0
 10 20  1  0
 11 15  4  0
 11 26  1  0
 13 22  4  0
 16 19  1  0
 16 20  2  0
 17 19  4  0
 17 21  4  0
 19 22  4  0
 20 28  1  0
 25 27  4  0
M  END
$$$$

 Created by Python create_sdf_string function

 28 30  0  0  0  0  0  0  0  0999 V2000
   11.4592   11.2893   18.7941 C   0  0  0  0  0  0  0  0  0  0  0  0
    3.4202    7.9009   20.3866 C   0  0  0  0  0  0  0  0  0  0  0  0
   13.5280   10.3522   19.3586 C   0  0  0  0  0  0  0  0  0  0  0  0
    9.6923    5.6468   22.7891 C   0  0  0  0  0  0  0  0  0  0  0  0
   11.7756   10.2554   20.8841 N   0  0  0  0  0  0  0  0  0  0  0  0
    8.9876   11.9370   19.8757 O   0  0  0  0  0  0  0  0  0  0  0  0
    6.0167    8.4478   21.1089 C   0  0  0  0  0  0  0  0  0  0  0  0
   11.0002   10.8890   20.0262 C   0  0  0  0  0  0  0  0  0  0  0  0
    2.1721    7.7393   20.0315 O   0  0  0  0  0  0  0  0  0  0  0  0
    9.1107   10.3880   21.3769 N   0  0  0  0  0  0  0  0  0  0  0  0
    3.9102    9.2008   20.3124 C   0  0  0  0  0  0  0  0  0  0  0  0
   12.7292   10.9960   18.4597 C   0  0  0  0  0  0  0  0  0  0  0  0
    9.3798    6.6793   23.6625 C   0  0  0  0  0  0  0  0  0  0  0  0
   14.7425   10.0739   19.0802 O   0  0  0  0  0  0  0  0  0  0  0  0
    5.1894    9.4673   20.7118 C   0  0  0  0  0  0  0  0  0  0  0  0
    7.3773    8.8224   21.4870 C   0  0  0  0  0  0  0  0  0  0  0  0
    8.4391    6.6439   21.0235 C   0  0  0  0  0  0  0  0  0  0  0  0
    9.6494   11.1353   20.4167 C   0  0  0  0  0  0  0  0  0  0  0  0
    8.1431    7.6829   21.9046 C   0  0  0  0  0  0  0  0  0  0  0  0
    7.7796   10.1314   21.5115 N   0  0  0  0  0  0  0  0  0  0  0  0
    9.2768    5.6183   21.4437 C   0  0  0  0  0  0  0  0  0  0  0  0
    8.6315    7.7322   23.1768 C   0  0  0  0  0  0  0  0  0  0  0  0
   13.0537    9.9821   20.5781 C   0  0  0  0  0  0  0  0  0  0  0  0
   10.3850    4.6575   23.2386 O   0  0  0  0  0  0  0  0  0  0  0  0
    4.2069    6.8450   20.7994 C   0  0  0  0  0  0  0  0  0  0  0  0
    3.0726   10.1043   19.8522 O   0  0  0  0  0  0  0  0  0  0  0  0
    5.5057    7.1196   21.1155 C   0  0  0  0  0  0  0  0  0  0  0  0
    7.0367   11.0229   21.9948 O   0  0  0  0  0  0  0  0  0  0  0  0
  1  8  4  0
  1 12  4  0
  2  9  1  0
  2 11  4  0
  2 25  4  0
  3 12  4  0
  3 14  1  0
  3 23  4  0
  4 13  4  0
  4 21  4  0
  4 24  1  0
  5  8  4  0
  5 23  4  0
  6 18  2  0
  7 15  4  0
  7 16  1  0
  7 27  4  0
  8 18  1  0
 10 18  1  0
 10 20  1  0
 11 15  4  0
 11 26  1  0
 13 22  4  0
 16 19  1  0
 16 20  2  0
 17 19  4  0
 17 21  4  0
 19 22  4  0
 20 28  1  0
 25 27  4  0
M  END
$$$$

 Created by Python create_sdf_string function

 28 30  0  0  0  0  0  0  0  0999 V2000
   11.4592   11.2893   18.7941 C   0  0  0  0  0  0  0  0  0  0  0  0
    3.4202    7.9009   20.3866 C   0  0  0  0  0  0  0  0  0  0  0  0
   13.5280   10.3522   19.3586 C   0  0  0  0  0  0  0  0  0  0  0  0
    9.6923    5.6468   22.7891 C   0  0  0  0  0  0  0  0  0  0  0  0
   11.7756   10.2554   20.8841 N   0  0  0  0  0  0  0  0  0  0  0  0
    8.9876   11.9370   19.8757 O   0  0  0  0  0  0  0  0  0  0  0  0
    6.0167    8.4478   21.1089 C   0  0  0  0  0  0  0  0  0  0  0  0
   11.0002   10.8890   20.0262 C   0  0  0  0  0  0  0  0  0  0  0  0
    2.1721    7.7393   20.0315 O   0  0  0  0  0  0  0  0  0  0  0  0
    9.1107   10.3880   21.3769 N   0  0  0  0  0  0  0  0  0  0  0  0
    3.9102    9.2008   20.3124 C   0  0  0  0  0  0  0  0  0  0  0  0
   12.7292   10.9960   18.4597 C   0  0  0  0  0  0  0  0  0  0  0  0
    9.3798    6.6793   23.6625 C   0  0  0  0  0  0  0  0  0  0  0  0
   14.7425   10.0739   19.0802 O   0  0  0  0  0  0  0  0  0  0  0  0
    5.1894    9.4673   20.7118 C   0  0  0  0  0  0  0  0  0  0  0  0
    7.3773    8.8224   21.4870 C   0  0  0  0  0  0  0  0  0  0  0  0
    8.4391    6.6439   21.0235 C   0  0  0  0  0  0  0  0  0  0  0  0
    9.6494   11.1353   20.4167 C   0  0  0  0  0  0  0  0  0  0  0  0
    8.1431    7.6829   21.9046 C   0  0  0  0  0  0  0  0  0  0  0  0
    7.7796   10.1314   21.5115 N   0  0  0  0  0  0  0  0  0  0  0  0
    9.2768    5.6183   21.4437 C   0  0  0  0  0  0  0  0  0  0  0  0
    8.6315    7.7322   23.1768 C   0  0  0  0  0  0  0  0  0  0  0  0
   13.0537    9.9821   20.5781 C   0  0  0  0  0  0  0  0  0  0  0  0
   10.3850    4.6575   23.2386 O   0  0  0  0  0  0  0  0  0  0  0  0
    4.2069    6.8450   20.7994 C   0  0  0  0  0  0  0  0  0  0  0  0
    3.0726   10.1043   19.8522 O   0  0  0  0  0  0  0  0  0  0  0  0
    5.5057    7.1196   21.1155 C   0  0  0  0  0  0  0  0  0  0  0  0
    7.0367   11.0229   21.9948 O   0  0  0  0  0  0  0  0  0  0  0  0
  1  8  4  0
  1 12  4  0
  2  9  1  0
  2 11  4  0
  2 25  4  0
  3 12  4  0
  3 14  1  0
  3 23  4  0
  4 13  4  0
  4 21  4  0
  4 24  1  0
  5  8  4  0
  5 23  4  0
  6 18  2  0
  7 15  4  0
  7 16  1  0
  7 27  4  0
  8 18  1  0
 10 18  1  0
 10 20  1  0
 11 15  4  0
 11 26  1  0
 13 22  4  0
 16 19  1  0
 16 20  2  0
 17 19  4  0
 17 21  4  0
 19 22  4  0
 20 28  1  0
 25 27  4  0
M  END
$$$$

 Created by Python create_sdf_string function

 28 30  0  0  0  0  0  0  0  0999 V2000
   11.4592   11.2893   18.7941 C   0  0  0  0  0  0  0  0  0  0  0  0
    3.4202    7.9009   20.3866 C   0  0  0  0  0  0  0  0  0  0  0  0
   13.5280   10.3522   19.3586 C   0  0  0  0  0  0  0  0  0  0  0  0
    9.6923    5.6468   22.7891 C   0  0  0  0  0  0  0  0  0  0  0  0
   11.7756   10.2554   20.8841 N   0  0  0  0  0  0  0  0  0  0  0  0
    8.9876   11.9370   19.8757 O   0  0  0  0  0  0  0  0  0  0  0  0
    6.0167    8.4478   21.1089 C   0  0  0  0  0  0  0  0  0  0  0  0
   11.0002   10.8890   20.0262 C   0  0  0  0  0  0  0  0  0  0  0  0
    2.1721    7.7393   20.0315 O   0  0  0  0  0  0  0  0  0  0  0  0
    9.1107   10.3880   21.3769 N   0  0  0  0  0  0  0  0  0  0  0  0
    3.9102    9.2008   20.3124 C   0  0  0  0  0  0  0  0  0  0  0  0
   12.7292   10.9960   18.4597 C   0  0  0  0  0  0  0  0  0  0  0  0
    9.3798    6.6793   23.6625 C   0  0  0  0  0  0  0  0  0  0  0  0
   14.7425   10.0739   19.0802 O   0  0  0  0  0  0  0  0  0  0  0  0
    5.1894    9.4673   20.7118 C   0  0  0  0  0  0  0  0  0  0  0  0
    7.3773    8.8224   21.4870 C   0  0  0  0  0  0  0  0  0  0  0  0
    8.4391    6.6439   21.0235 C   0  0  0  0  0  0  0  0  0  0  0  0
    9.6494   11.1353   20.4167 C   0  0  0  0  0  0  0  0  0  0  0  0
    8.1431    7.6829   21.9046 C   0  0  0  0  0  0  0  0  0  0  0  0
    7.7796   10.1314   21.5115 N   0  0  0  0  0  0  0  0  0  0  0  0
    9.2768    5.6183   21.4437 C   0  0  0  0  0  0  0  0  0  0  0  0
    8.6315    7.7322   23.1768 C   0  0  0  0  0  0  0  0  0  0  0  0
   13.0537    9.9821   20.5781 C   0  0  0  0  0  0  0  0  0  0  0  0
   10.3850    4.6575   23.2386 O   0  0  0  0  0  0  0  0  0  0  0  0
    4.2069    6.8450   20.7994 C   0  0  0  0  0  0  0  0  0  0  0  0
    3.0726   10.1043   19.8522 O   0  0  0  0  0  0  0  0  0  0  0  0
    5.5057    7.1196   21.1155 C   0  0  0  0  0  0  0  0  0  0  0  0
    7.0367   11.0229   21.9948 O   0  0  0  0  0  0  0  0  0  0  0  0
  1  8  4  0
  1 12  4  0
  2  9  1  0
  2 11  4  0
  2 25  4  0
  3 12  4  0
  3 14  1  0
  3 23  4  0
  4 13  4  0
  4 21  4  0
  4 24  1  0
  5  8  4  0
  5 23  4  0
  6 18  2  0
  7 15  4  0
  7 16  1  0
  7 27  4  0
  8 18  1  0
 10 18  1  0
 10 20  1  0
 11 15  4  0
 11 26  1  0
 13 22  4  0
 16 19  1  0
 16 20  2  0
 17 19  4  0
 17 21  4  0
 19 22  4  0
 20 28  1  0
 25 27  4  0
M  END
$$$$

 Created by Python create_sdf_string function

 28 30  0  0  0  0  0  0  0  0999 V2000
   11.4592   11.2893   18.7941 C   0  0  0  0  0  0  0  0  0  0  0  0
    3.4202    7.9009   20.3866 C   0  0  0  0  0  0  0  0  0  0  0  0
   13.5280   10.3522   19.3586 C   0  0  0  0  0  0  0  0  0  0  0  0
    9.6923    5.6468   22.7891 C   0  0  0  0  0  0  0  0  0  0  0  0
   11.7756   10.2554   20.8841 N   0  0  0  0  0  0  0  0  0  0  0  0
    8.9876   11.9370   19.8757 O   0  0  0  0  0  0  0  0  0  0  0  0
    6.0167    8.4478   21.1089 C   0  0  0  0  0  0  0  0  0  0  0  0
   11.0002   10.8890   20.0262 C   0  0  0  0  0  0  0  0  0  0  0  0
    2.1721    7.7393   20.0315 O   0  0  0  0  0  0  0  0  0  0  0  0
    9.1107   10.3880   21.3769 N   0  0  0  0  0  0  0  0  0  0  0  0
    3.9102    9.2008   20.3124 C   0  0  0  0  0  0  0  0  0  0  0  0
   12.7292   10.9960   18.4597 C   0  0  0  0  0  0  0  0  0  0  0  0
    9.3798    6.6793   23.6625 C   0  0  0  0  0  0  0  0  0  0  0  0
   14.7425   10.0739   19.0802 O   0  0  0  0  0  0  0  0  0  0  0  0
    5.1894    9.4673   20.7118 C   0  0  0  0  0  0  0  0  0  0  0  0
    7.3773    8.8224   21.4870 C   0  0  0  0  0  0  0  0  0  0  0  0
    8.4391    6.6439   21.0235 C   0  0  0  0  0  0  0  0  0  0  0  0
    9.6494   11.1353   20.4167 C   0  0  0  0  0  0  0  0  0  0  0  0
    8.1431    7.6829   21.9046 C   0  0  0  0  0  0  0  0  0  0  0  0
    7.7796   10.1314   21.5115 N   0  0  0  0  0  0  0  0  0  0  0  0
    9.2768    5.6183   21.4437 C   0  0  0  0  0  0  0  0  0  0  0  0
    8.6315    7.7322   23.1768 C   0  0  0  0  0  0  0  0  0  0  0  0
   13.0537    9.9821   20.5781 C   0  0  0  0  0  0  0  0  0  0  0  0
   10.3850    4.6575   23.2386 O   0  0  0  0  0  0  0  0  0  0  0  0
    4.2069    6.8450   20.7994 C   0  0  0  0  0  0  0  0  0  0  0  0
    3.0726   10.1043   19.8522 O   0  0  0  0  0  0  0  0  0  0  0  0
    5.5057    7.1196   21.1155 C   0  0  0  0  0  0  0  0  0  0  0  0
    7.0367   11.0229   21.9948 O   0  0  0  0  0  0  0  0  0  0  0  0
  1  8  4  0
  1 12  4  0
  2  9  1  0
  2 11  4  0
  2 25  4  0
  3 12  4  0
  3 14  1  0
  3 23  4  0
  4 13  4  0
  4 21  4  0
  4 24  1  0
  5  8  4  0
  5 23  4  0
  6 18  2  0
  7 15  4  0
  7 16  1  0
  7 27  4  0
  8 18  1  0
 10 18  1  0
 10 20  1  0
 11 15  4  0
 11 26  1  0
 13 22  4  0
 16 19  1  0
 16 20  2  0
 17 19  4  0
 17 21  4  0
 19 22  4  0
 20 28  1  0
 25 27  4  0
M  END
$$$$

 Created by Python create_sdf_string function

 28 30  0  0  0  0  0  0  0  0999 V2000
   11.4592   11.2893   18.7941 C   0  0  0  0  0  0  0  0  0  0  0  0
    3.4202    7.9009   20.3866 C   0  0  0  0  0  0  0  0  0  0  0  0
   13.5280   10.3522   19.3586 C   0  0  0  0  0  0  0  0  0  0  0  0
    9.6923    5.6468   22.7891 C   0  0  0  0  0  0  0  0  0  0  0  0
   11.7756   10.2554   20.8841 N   0  0  0  0  0  0  0  0  0  0  0  0
    8.9876   11.9370   19.8757 O   0  0  0  0  0  0  0  0  0  0  0  0
    6.0167    8.4478   21.1089 C   0  0  0  0  0  0  0  0  0  0  0  0
   11.0002   10.8890   20.0262 C   0  0  0  0  0  0  0  0  0  0  0  0
    2.1721    7.7393   20.0315 O   0  0  0  0  0  0  0  0  0  0  0  0
    9.1107   10.3880   21.3769 N   0  0  0  0  0  0  0  0  0  0  0  0
    3.9102    9.2008   20.3124 C   0  0  0  0  0  0  0  0  0  0  0  0
   12.7292   10.9960   18.4597 C   0  0  0  0  0  0  0  0  0  0  0  0
    9.3798    6.6793   23.6625 C   0  0  0  0  0  0  0  0  0  0  0  0
   14.7425   10.0739   19.0802 O   0  0  0  0  0  0  0  0  0  0  0  0
    5.1894    9.4673   20.7118 C   0  0  0  0  0  0  0  0  0  0  0  0
    7.3773    8.8224   21.4870 C   0  0  0  0  0  0  0  0  0  0  0  0
    8.4391    6.6439   21.0235 C   0  0  0  0  0  0  0  0  0  0  0  0
    9.6494   11.1353   20.4167 C   0  0  0  0  0  0  0  0  0  0  0  0
    8.1431    7.6829   21.9046 C   0  0  0  0  0  0  0  0  0  0  0  0
    7.7796   10.1314   21.5115 N   0  0  0  0  0  0  0  0  0  0  0  0
    9.2768    5.6183   21.4437 C   0  0  0  0  0  0  0  0  0  0  0  0
    8.6315    7.7322   23.1768 C   0  0  0  0  0  0  0  0  0  0  0  0
   13.0537    9.9821   20.5781 C   0  0  0  0  0  0  0  0  0  0  0  0
   10.3850    4.6575   23.2386 O   0  0  0  0  0  0  0  0  0  0  0  0
    4.2069    6.8450   20.7994 C   0  0  0  0  0  0  0  0  0  0  0  0
    3.0726   10.1043   19.8522 O   0  0  0  0  0  0  0  0  0  0  0  0
    5.5057    7.1196   21.1155 C   0  0  0  0  0  0  0  0  0  0  0  0
    7.0367   11.0229   21.9948 O   0  0  0  0  0  0  0  0  0  0  0  0
  1  8  4  0
  1 12  4  0
  2  9  1  0
  2 11  4  0
  2 25  4  0
  3 12  4  0
  3 14  1  0
  3 23  4  0
  4 13  4  0
  4 21  4  0
  4 24  1  0
  5  8  4  0
  5 23  4  0
  6 18  2  0
  7 15  4  0
  7 16  1  0
  7 27  4  0
  8 18  1  0
 10 18  1  0
 10 20  1  0
 11 15  4  0
 11 26  1  0
 13 22  4  0
 16 19  1  0
 16 20  2  0
 17 19  4  0
 17 21  4  0
 19 22  4  0
 20 28  1  0
 25 27  4  0
M  END
$$$$

 Created by Python create_sdf_string function

 28 30  0  0  0  0  0  0  0  0999 V2000
   11.4592   11.2893   18.7941 C   0  0  0  0  0  0  0  0  0  0  0  0
    3.4202    7.9009   20.3866 C   0  0  0  0  0  0  0  0  0  0  0  0
   13.5280   10.3522   19.3586 C   0  0  0  0  0  0  0  0  0  0  0  0
    9.6923    5.6468   22.7891 C   0  0  0  0  0  0  0  0  0  0  0  0
   11.7756   10.2554   20.8841 N   0  0  0  0  0  0  0  0  0  0  0  0
    8.9876   11.9370   19.8757 O   0  0  0  0  0  0  0  0  0  0  0  0
    6.0167    8.4478   21.1089 C   0  0  0  0  0  0  0  0  0  0  0  0
   11.0002   10.8890   20.0262 C   0  0  0  0  0  0  0  0  0  0  0  0
    2.1721    7.7393   20.0315 O   0  0  0  0  0  0  0  0  0  0  0  0
    9.1107   10.3880   21.3769 N   0  0  0  0  0  0  0  0  0  0  0  0
    3.9102    9.2008   20.3124 C   0  0  0  0  0  0  0  0  0  0  0  0
   12.7292   10.9960   18.4597 C   0  0  0  0  0  0  0  0  0  0  0  0
    9.3798    6.6793   23.6625 C   0  0  0  0  0  0  0  0  0  0  0  0
   14.7425   10.0739   19.0802 O   0  0  0  0  0  0  0  0  0  0  0  0
    5.1894    9.4673   20.7118 C   0  0  0  0  0  0  0  0  0  0  0  0
    7.3773    8.8224   21.4870 C   0  0  0  0  0  0  0  0  0  0  0  0
    8.4391    6.6439   21.0235 C   0  0  0  0  0  0  0  0  0  0  0  0
    9.6494   11.1353   20.4167 C   0  0  0  0  0  0  0  0  0  0  0  0
    8.1431    7.6829   21.9046 C   0  0  0  0  0  0  0  0  0  0  0  0
    7.7796   10.1314   21.5115 N   0  0  0  0  0  0  0  0  0  0  0  0
    9.2768    5.6183   21.4437 C   0  0  0  0  0  0  0  0  0  0  0  0
    8.6315    7.7322   23.1768 C   0  0  0  0  0  0  0  0  0  0  0  0
   13.0537    9.9821   20.5781 C   0  0  0  0  0  0  0  0  0  0  0  0
   10.3850    4.6575   23.2386 O   0  0  0  0  0  0  0  0  0  0  0  0
    4.2069    6.8450   20.7994 C   0  0  0  0  0  0  0  0  0  0  0  0
    3.0726   10.1043   19.8522 O   0  0  0  0  0  0  0  0  0  0  0  0
    5.5057    7.1196   21.1155 C   0  0  0  0  0  0  0  0  0  0  0  0
    7.0367   11.0229   21.9948 O   0  0  0  0  0  0  0  0  0  0  0  0
  1  8  4  0
  1 12  4  0
  2  9  1  0
  2 11  4  0
  2 25  4  0
  3 12  4  0
  3 14  1  0
  3 23  4  0
  4 13  4  0
  4 21  4  0
  4 24  1  0
  5  8  4  0
  5 23  4  0
  6 18  2  0
  7 15  4  0
  7 16  1  0
  7 27  4  0
  8 18  1  0
 10 18  1  0
 10 20  1  0
 11 15  4  0
 11 26  1  0
 13 22  4  0
 16 19  1  0
 16 20  2  0
 17 19  4  0
 17 21  4  0
 19 22  4  0
 20 28  1  0
 25 27  4  0
M  END
$$$$

 Created by Python create_sdf_string function

 28 30  0  0  0  0  0  0  0  0999 V2000
   11.4592   11.2893   18.7941 C   0  0  0  0  0  0  0  0  0  0  0  0
    3.4202    7.9009   20.3866 C   0  0  0  0  0  0  0  0  0  0  0  0
   13.5280   10.3522   19.3586 C   0  0  0  0  0  0  0  0  0  0  0  0
    9.6923    5.6468   22.7891 C   0  0  0  0  0  0  0  0  0  0  0  0
   11.7756   10.2554   20.8841 N   0  0  0  0  0  0  0  0  0  0  0  0
    8.9876   11.9370   19.8757 O   0  0  0  0  0  0  0  0  0  0  0  0
    6.0167    8.4478   21.1089 C   0  0  0  0  0  0  0  0  0  0  0  0
   11.0002   10.8890   20.0262 C   0  0  0  0  0  0  0  0  0  0  0  0
    2.1721    7.7393   20.0315 O   0  0  0  0  0  0  0  0  0  0  0  0
    9.1107   10.3880   21.3769 N   0  0  0  0  0  0  0  0  0  0  0  0
    3.9102    9.2008   20.3124 C   0  0  0  0  0  0  0  0  0  0  0  0
   12.7292   10.9960   18.4597 C   0  0  0  0  0  0  0  0  0  0  0  0
    9.3798    6.6793   23.6625 C   0  0  0  0  0  0  0  0  0  0  0  0
   14.7425   10.0739   19.0802 O   0  0  0  0  0  0  0  0  0  0  0  0
    5.1894    9.4673   20.7118 C   0  0  0  0  0  0  0  0  0  0  0  0
    7.3773    8.8224   21.4870 C   0  0  0  0  0  0  0  0  0  0  0  0
    8.4391    6.6439   21.0235 C   0  0  0  0  0  0  0  0  0  0  0  0
    9.6494   11.1353   20.4167 C   0  0  0  0  0  0  0  0  0  0  0  0
    8.1431    7.6829   21.9046 C   0  0  0  0  0  0  0  0  0  0  0  0
    7.7796   10.1314   21.5115 N   0  0  0  0  0  0  0  0  0  0  0  0
    9.2768    5.6183   21.4437 C   0  0  0  0  0  0  0  0  0  0  0  0
    8.6315    7.7322   23.1768 C   0  0  0  0  0  0  0  0  0  0  0  0
   13.0537    9.9821   20.5781 C   0  0  0  0  0  0  0  0  0  0  0  0
   10.3850    4.6575   23.2386 O   0  0  0  0  0  0  0  0  0  0  0  0
    4.2069    6.8450   20.7994 C   0  0  0  0  0  0  0  0  0  0  0  0
    3.0726   10.1043   19.8522 O   0  0  0  0  0  0  0  0  0  0  0  0
    5.5057    7.1196   21.1155 C   0  0  0  0  0  0  0  0  0  0  0  0
    7.0367   11.0229   21.9948 O   0  0  0  0  0  0  0  0  0  0  0  0
  1  8  4  0
  1 12  4  0
  2  9  1  0
  2 11  4  0
  2 25  4  0
  3 12  4  0
  3 14  1  0
  3 23  4  0
  4 13  4  0
  4 21  4  0
  4 24  1  0
  5  8  4  0
  5 23  4  0
  6 18  2  0
  7 15  4  0
  7 16  1  0
  7 27  4  0
  8 18  1  0
 10 18  1  0
 10 20  1  0
 11 15  4  0
 11 26  1  0
 13 22  4  0
 16 19  1  0
 16 20  2  0
 17 19  4  0
 17 21  4  0
 19 22  4  0
 20 28  1  0
 25 27  4  0
M  END
$$$$

 Created by Python create_sdf_string function

 28 30  0  0  0  0  0  0  0  0999 V2000
   11.4592   11.2893   18.7941 C   0  0  0  0  0  0  0  0  0  0  0  0
    3.4202    7.9009   20.3866 C   0  0  0  0  0  0  0  0  0  0  0  0
   13.5280   10.3522   19.3586 C   0  0  0  0  0  0  0  0  0  0  0  0
    9.6923    5.6468   22.7891 C   0  0  0  0  0  0  0  0  0  0  0  0
   11.7756   10.2554   20.8841 N   0  0  0  0  0  0  0  0  0  0  0  0
    8.9876   11.9370   19.8757 O   0  0  0  0  0  0  0  0  0  0  0  0
    6.0167    8.4478   21.1089 C   0  0  0  0  0  0  0  0  0  0  0  0
   11.0002   10.8890   20.0262 C   0  0  0  0  0  0  0  0  0  0  0  0
    2.1721    7.7393   20.0315 O   0  0  0  0  0  0  0  0  0  0  0  0
    9.1107   10.3880   21.3769 N   0  0  0  0  0  0  0  0  0  0  0  0
    3.9102    9.2008   20.3124 C   0  0  0  0  0  0  0  0  0  0  0  0
   12.7292   10.9960   18.4597 C   0  0  0  0  0  0  0  0  0  0  0  0
    9.3798    6.6793   23.6625 C   0  0  0  0  0  0  0  0  0  0  0  0
   14.7425   10.0739   19.0802 O   0  0  0  0  0  0  0  0  0  0  0  0
    5.1894    9.4673   20.7118 C   0  0  0  0  0  0  0  0  0  0  0  0
    7.3773    8.8224   21.4870 C   0  0  0  0  0  0  0  0  0  0  0  0
    8.4391    6.6439   21.0235 C   0  0  0  0  0  0  0  0  0  0  0  0
    9.6494   11.1353   20.4167 C   0  0  0  0  0  0  0  0  0  0  0  0
    8.1431    7.6829   21.9046 C   0  0  0  0  0  0  0  0  0  0  0  0
    7.7796   10.1314   21.5115 N   0  0  0  0  0  0  0  0  0  0  0  0
    9.2768    5.6183   21.4437 C   0  0  0  0  0  0  0  0  0  0  0  0
    8.6315    7.7322   23.1768 C   0  0  0  0  0  0  0  0  0  0  0  0
   13.0537    9.9821   20.5781 C   0  0  0  0  0  0  0  0  0  0  0  0
   10.3850    4.6575   23.2386 O   0  0  0  0  0  0  0  0  0  0  0  0
    4.2069    6.8450   20.7994 C   0  0  0  0  0  0  0  0  0  0  0  0
    3.0726   10.1043   19.8522 O   0  0  0  0  0  0  0  0  0  0  0  0
    5.5057    7.1196   21.1155 C   0  0  0  0  0  0  0  0  0  0  0  0
    7.0367   11.0229   21.9948 O   0  0  0  0  0  0  0  0  0  0  0  0
  1  8  4  0
  1 12  4  0
  2  9  1  0
  2 11  4  0
  2 25  4  0
  3 12  4  0
  3 14  1  0
  3 23  4  0
  4 13  4  0
  4 21  4  0
  4 24  1  0
  5  8  4  0
  5 23  4  0
  6 18  2  0
  7 15  4  0
  7 16  1  0
  7 27  4  0
  8 18  1  0
 10 18  1  0
 10 20  1  0
 11 15  4  0
 11 26  1  0
 13 22  4  0
 16 19  1  0
 16 20  2  0
 17 19  4  0
 17 21  4  0
 19 22  4  0
 20 28  1  0
 25 27  4  0
M  END
$$$$

 Created by Python create_sdf_string function

 28 30  0  0  0  0  0  0  0  0999 V2000
   11.4592   11.2893   18.7941 C   0  0  0  0  0  0  0  0  0  0  0  0
    3.4202    7.9009   20.3866 C   0  0  0  0  0  0  0  0  0  0  0  0
   13.5280   10.3522   19.3586 C   0  0  0  0  0  0  0  0  0  0  0  0
    9.6923    5.6468   22.7891 C   0  0  0  0  0  0  0  0  0  0  0  0
   11.7756   10.2554   20.8841 N   0  0  0  0  0  0  0  0  0  0  0  0
    8.9876   11.9370   19.8757 O   0  0  0  0  0  0  0  0  0  0  0  0
    6.0167    8.4478   21.1089 C   0  0  0  0  0  0  0  0  0  0  0  0
   11.0002   10.8890   20.0262 C   0  0  0  0  0  0  0  0  0  0  0  0
    2.1721    7.7393   20.0315 O   0  0  0  0  0  0  0  0  0  0  0  0
    9.1107   10.3880   21.3769 N   0  0  0  0  0  0  0  0  0  0  0  0
    3.9102    9.2008   20.3124 C   0  0  0  0  0  0  0  0  0  0  0  0
   12.7292   10.9960   18.4597 C   0  0  0  0  0  0  0  0  0  0  0  0
    9.3798    6.6793   23.6625 C   0  0  0  0  0  0  0  0  0  0  0  0
   14.7425   10.0739   19.0802 O   0  0  0  0  0  0  0  0  0  0  0  0
    5.1894    9.4673   20.7118 C   0  0  0  0  0  0  0  0  0  0  0  0
    7.3773    8.8224   21.4870 C   0  0  0  0  0  0  0  0  0  0  0  0
    8.4391    6.6439   21.0235 C   0  0  0  0  0  0  0  0  0  0  0  0
    9.6494   11.1353   20.4167 C   0  0  0  0  0  0  0  0  0  0  0  0
    8.1431    7.6829   21.9046 C   0  0  0  0  0  0  0  0  0  0  0  0
    7.7796   10.1314   21.5115 N   0  0  0  0  0  0  0  0  0  0  0  0
    9.2768    5.6183   21.4437 C   0  0  0  0  0  0  0  0  0  0  0  0
    8.6315    7.7322   23.1768 C   0  0  0  0  0  0  0  0  0  0  0  0
   13.0537    9.9821   20.5781 C   0  0  0  0  0  0  0  0  0  0  0  0
   10.3850    4.6575   23.2386 O   0  0  0  0  0  0  0  0  0  0  0  0
    4.2069    6.8450   20.7994 C   0  0  0  0  0  0  0  0  0  0  0  0
    3.0726   10.1043   19.8522 O   0  0  0  0  0  0  0  0  0  0  0  0
    5.5057    7.1196   21.1155 C   0  0  0  0  0  0  0  0  0  0  0  0
    7.0367   11.0229   21.9948 O   0  0  0  0  0  0  0  0  0  0  0  0
  1  8  4  0
  1 12  4  0
  2  9  1  0
  2 11  4  0
  2 25  4  0
  3 12  4  0
  3 14  1  0
  3 23  4  0
  4 13  4  0
  4 21  4  0
  4 24  1  0
  5  8  4  0
  5 23  4  0
  6 18  2  0
  7 15  4  0
  7 16  1  0
  7 27  4  0
  8 18  1  0
 10 18  1  0
 10 20  1  0
 11 15  4  0
 11 26  1  0
 13 22  4  0
 16 19  1  0
 16 20  2  0
 17 19  4  0
 17 21  4  0
 19 22  4  0
 20 28  1  0
 25 27  4  0
M  END
$$$$

 Created by Python create_sdf_string function

 28 30  0  0  0  0  0  0  0  0999 V2000
   11.4592   11.2893   18.7941 C   0  0  0  0  0  0  0  0  0  0  0  0
    3.4202    7.9009   20.3866 C   0  0  0  0  0  0  0  0  0  0  0  0
   13.5280   10.3522   19.3586 C   0  0  0  0  0  0  0  0  0  0  0  0
    9.6923    5.6468   22.7891 C   0  0  0  0  0  0  0  0  0  0  0  0
   11.7756   10.2554   20.8841 N   0  0  0  0  0  0  0  0  0  0  0  0
    8.9876   11.9370   19.8757 O   0  0  0  0  0  0  0  0  0  0  0  0
    6.0167    8.4478   21.1089 C   0  0  0  0  0  0  0  0  0  0  0  0
   11.0002   10.8890   20.0262 C   0  0  0  0  0  0  0  0  0  0  0  0
    2.1721    7.7393   20.0315 O   0  0  0  0  0  0  0  0  0  0  0  0
    9.1107   10.3880   21.3769 N   0  0  0  0  0  0  0  0  0  0  0  0
    3.9102    9.2008   20.3124 C   0  0  0  0  0  0  0  0  0  0  0  0
   12.7292   10.9960   18.4597 C   0  0  0  0  0  0  0  0  0  0  0  0
    9.3798    6.6793   23.6625 C   0  0  0  0  0  0  0  0  0  0  0  0
   14.7425   10.0739   19.0802 O   0  0  0  0  0  0  0  0  0  0  0  0
    5.1894    9.4673   20.7118 C   0  0  0  0  0  0  0  0  0  0  0  0
    7.3773    8.8224   21.4870 C   0  0  0  0  0  0  0  0  0  0  0  0
    8.4391    6.6439   21.0235 C   0  0  0  0  0  0  0  0  0  0  0  0
    9.6494   11.1353   20.4167 C   0  0  0  0  0  0  0  0  0  0  0  0
    8.1431    7.6829   21.9046 C   0  0  0  0  0  0  0  0  0  0  0  0
    7.7796   10.1314   21.5115 N   0  0  0  0  0  0  0  0  0  0  0  0
    9.2768    5.6183   21.4437 C   0  0  0  0  0  0  0  0  0  0  0  0
    8.6315    7.7322   23.1768 C   0  0  0  0  0  0  0  0  0  0  0  0
   13.0537    9.9821   20.5781 C   0  0  0  0  0  0  0  0  0  0  0  0
   10.3850    4.6575   23.2386 O   0  0  0  0  0  0  0  0  0  0  0  0
    4.2069    6.8450   20.7994 C   0  0  0  0  0  0  0  0  0  0  0  0
    3.0726   10.1043   19.8522 O   0  0  0  0  0  0  0  0  0  0  0  0
    5.5057    7.1196   21.1155 C   0  0  0  0  0  0  0  0  0  0  0  0
    7.0367   11.0229   21.9948 O   0  0  0  0  0  0  0  0  0  0  0  0
  1  8  4  0
  1 12  4  0
  2  9  1  0
  2 11  4  0
  2 25  4  0
  3 12  4  0
  3 14  1  0
  3 23  4  0
  4 13  4  0
  4 21  4  0
  4 24  1  0
  5  8  4  0
  5 23  4  0
  6 18  2  0
  7 15  4  0
  7 16  1  0
  7 27  4  0
  8 18  1  0
 10 18  1  0
 10 20  1  0
 11 15  4  0
 11 26  1  0
 13 22  4  0
 16 19  1  0
 16 20  2  0
 17 19  4  0
 17 21  4  0
 19 22  4  0
 20 28  1  0
 25 27  4  0
M  END
$$$$

 Created by Python create_sdf_string function

 28 30  0  0  0  0  0  0  0  0999 V2000
   11.4592   11.2893   18.7941 C   0  0  0  0  0  0  0  0  0  0  0  0
    3.4202    7.9009   20.3866 C   0  0  0  0  0  0  0  0  0  0  0  0
   13.5280   10.3522   19.3586 C   0  0  0  0  0  0  0  0  0  0  0  0
    9.6923    5.6468   22.7891 C   0  0  0  0  0  0  0  0  0  0  0  0
   11.7756   10.2554   20.8841 N   0  0  0  0  0  0  0  0  0  0  0  0
    8.9876   11.9370   19.8757 O   0  0  0  0  0  0  0  0  0  0  0  0
    6.0167    8.4478   21.1089 C   0  0  0  0  0  0  0  0  0  0  0  0
   11.0002   10.8890   20.0262 C   0  0  0  0  0  0  0  0  0  0  0  0
    2.1721    7.7393   20.0315 O   0  0  0  0  0  0  0  0  0  0  0  0
    9.1107   10.3880   21.3769 N   0  0  0  0  0  0  0  0  0  0  0  0
    3.9102    9.2008   20.3124 C   0  0  0  0  0  0  0  0  0  0  0  0
   12.7292   10.9960   18.4597 C   0  0  0  0  0  0  0  0  0  0  0  0
    9.3798    6.6793   23.6625 C   0  0  0  0  0  0  0  0  0  0  0  0
   14.7425   10.0739   19.0802 O   0  0  0  0  0  0  0  0  0  0  0  0
    5.1894    9.4673   20.7118 C   0  0  0  0  0  0  0  0  0  0  0  0
    7.3773    8.8224   21.4870 C   0  0  0  0  0  0  0  0  0  0  0  0
    8.4391    6.6439   21.0235 C   0  0  0  0  0  0  0  0  0  0  0  0
    9.6494   11.1353   20.4167 C   0  0  0  0  0  0  0  0  0  0  0  0
    8.1431    7.6829   21.9046 C   0  0  0  0  0  0  0  0  0  0  0  0
    7.7796   10.1314   21.5115 N   0  0  0  0  0  0  0  0  0  0  0  0
    9.2768    5.6183   21.4437 C   0  0  0  0  0  0  0  0  0  0  0  0
    8.6315    7.7322   23.1768 C   0  0  0  0  0  0  0  0  0  0  0  0
   13.0537    9.9821   20.5781 C   0  0  0  0  0  0  0  0  0  0  0  0
   10.3850    4.6575   23.2386 O   0  0  0  0  0  0  0  0  0  0  0  0
    4.2069    6.8450   20.7994 C   0  0  0  0  0  0  0  0  0  0  0  0
    3.0726   10.1043   19.8522 O   0  0  0  0  0  0  0  0  0  0  0  0
    5.5057    7.1196   21.1155 C   0  0  0  0  0  0  0  0  0  0  0  0
    7.0367   11.0229   21.9948 O   0  0  0  0  0  0  0  0  0  0  0  0
  1  8  4  0
  1 12  4  0
  2  9  1  0
  2 11  4  0
  2 25  4  0
  3 12  4  0
  3 14  1  0
  3 23  4  0
  4 13  4  0
  4 21  4  0
  4 24  1  0
  5  8  4  0
  5 23  4  0
  6 18  2  0
  7 15  4  0
  7 16  1  0
  7 27  4  0
  8 18  1  0
 10 18  1  0
 10 20  1  0
 11 15  4  0
 11 26  1  0
 13 22  4  0
 16 19  1  0
 16 20  2  0
 17 19  4  0
 17 21  4  0
 19 22  4  0
 20 28  1  0
 25 27  4  0
M  END
$$$$

 Created by Python create_sdf_string function

 28 30  0  0  0  0  0  0  0  0999 V2000
   11.4592   11.2893   18.7941 C   0  0  0  0  0  0  0  0  0  0  0  0
    3.4202    7.9009   20.3866 C   0  0  0  0  0  0  0  0  0  0  0  0
   13.5280   10.3522   19.3586 C   0  0  0  0  0  0  0  0  0  0  0  0
    9.6923    5.6468   22.7891 C   0  0  0  0  0  0  0  0  0  0  0  0
   11.7756   10.2554   20.8841 N   0  0  0  0  0  0  0  0  0  0  0  0
    8.9876   11.9370   19.8757 O   0  0  0  0  0  0  0  0  0  0  0  0
    6.0167    8.4478   21.1089 C   0  0  0  0  0  0  0  0  0  0  0  0
   11.0002   10.8890   20.0262 C   0  0  0  0  0  0  0  0  0  0  0  0
    2.1721    7.7393   20.0315 O   0  0  0  0  0  0  0  0  0  0  0  0
    9.1107   10.3880   21.3769 N   0  0  0  0  0  0  0  0  0  0  0  0
    3.9102    9.2008   20.3124 C   0  0  0  0  0  0  0  0  0  0  0  0
   12.7292   10.9960   18.4597 C   0  0  0  0  0  0  0  0  0  0  0  0
    9.3798    6.6793   23.6625 C   0  0  0  0  0  0  0  0  0  0  0  0
   14.7425   10.0739   19.0802 O   0  0  0  0  0  0  0  0  0  0  0  0
    5.1894    9.4673   20.7118 C   0  0  0  0  0  0  0  0  0  0  0  0
    7.3773    8.8224   21.4870 C   0  0  0  0  0  0  0  0  0  0  0  0
    8.4391    6.6439   21.0235 C   0  0  0  0  0  0  0  0  0  0  0  0
    9.6494   11.1353   20.4167 C   0  0  0  0  0  0  0  0  0  0  0  0
    8.1431    7.6829   21.9046 C   0  0  0  0  0  0  0  0  0  0  0  0
    7.7796   10.1314   21.5115 N   0  0  0  0  0  0  0  0  0  0  0  0
    9.2768    5.6183   21.4437 C   0  0  0  0  0  0  0  0  0  0  0  0
    8.6315    7.7322   23.1768 C   0  0  0  0  0  0  0  0  0  0  0  0
   13.0537    9.9821   20.5781 C   0  0  0  0  0  0  0  0  0  0  0  0
   10.3850    4.6575   23.2386 O   0  0  0  0  0  0  0  0  0  0  0  0
    4.2069    6.8450   20.7994 C   0  0  0  0  0  0  0  0  0  0  0  0
    3.0726   10.1043   19.8522 O   0  0  0  0  0  0  0  0  0  0  0  0
    5.5057    7.1196   21.1155 C   0  0  0  0  0  0  0  0  0  0  0  0
    7.0367   11.0229   21.9948 O   0  0  0  0  0  0  0  0  0  0  0  0
  1  8  4  0
  1 12  4  0
  2  9  1  0
  2 11  4  0
  2 25  4  0
  3 12  4  0
  3 14  1  0
  3 23  4  0
  4 13  4  0
  4 21  4  0
  4 24  1  0
  5  8  4  0
  5 23  4  0
  6 18  2  0
  7 15  4  0
  7 16  1  0
  7 27  4  0
  8 18  1  0
 10 18  1  0
 10 20  1  0
 11 15  4  0
 11 26  1  0
 13 22  4  0
 16 19  1  0
 16 20  2  0
 17 19  4  0
 17 21  4  0
 19 22  4  0
 20 28  1  0
 25 27  4  0
M  END
$$$$

 Created by Python create_sdf_string function

 28 30  0  0  0  0  0  0  0  0999 V2000
   11.4592   11.2893   18.7941 C   0  0  0  0  0  0  0  0  0  0  0  0
    3.4202    7.9009   20.3866 C   0  0  0  0  0  0  0  0  0  0  0  0
   13.5280   10.3522   19.3586 C   0  0  0  0  0  0  0  0  0  0  0  0
    9.6923    5.6468   22.7891 C   0  0  0  0  0  0  0  0  0  0  0  0
   11.7756   10.2554   20.8841 N   0  0  0  0  0  0  0  0  0  0  0  0
    8.9876   11.9370   19.8757 O   0  0  0  0  0  0  0  0  0  0  0  0
    6.0167    8.4478   21.1089 C   0  0  0  0  0  0  0  0  0  0  0  0
   11.0002   10.8890   20.0262 C   0  0  0  0  0  0  0  0  0  0  0  0
    2.1721    7.7393   20.0315 O   0  0  0  0  0  0  0  0  0  0  0  0
    9.1107   10.3880   21.3769 N   0  0  0  0  0  0  0  0  0  0  0  0
    3.9102    9.2008   20.3124 C   0  0  0  0  0  0  0  0  0  0  0  0
   12.7292   10.9960   18.4597 C   0  0  0  0  0  0  0  0  0  0  0  0
    9.3798    6.6793   23.6625 C   0  0  0  0  0  0  0  0  0  0  0  0
   14.7425   10.0739   19.0802 O   0  0  0  0  0  0  0  0  0  0  0  0
    5.1894    9.4673   20.7118 C   0  0  0  0  0  0  0  0  0  0  0  0
    7.3773    8.8224   21.4870 C   0  0  0  0  0  0  0  0  0  0  0  0
    8.4391    6.6439   21.0235 C   0  0  0  0  0  0  0  0  0  0  0  0
    9.6494   11.1353   20.4167 C   0  0  0  0  0  0  0  0  0  0  0  0
    8.1431    7.6829   21.9046 C   0  0  0  0  0  0  0  0  0  0  0  0
    7.7796   10.1314   21.5115 N   0  0  0  0  0  0  0  0  0  0  0  0
    9.2768    5.6183   21.4437 C   0  0  0  0  0  0  0  0  0  0  0  0
    8.6315    7.7322   23.1768 C   0  0  0  0  0  0  0  0  0  0  0  0
   13.0537    9.9821   20.5781 C   0  0  0  0  0  0  0  0  0  0  0  0
   10.3850    4.6575   23.2386 O   0  0  0  0  0  0  0  0  0  0  0  0
    4.2069    6.8450   20.7994 C   0  0  0  0  0  0  0  0  0  0  0  0
    3.0726   10.1043   19.8522 O   0  0  0  0  0  0  0  0  0  0  0  0
    5.5057    7.1196   21.1155 C   0  0  0  0  0  0  0  0  0  0  0  0
    7.0367   11.0229   21.9948 O   0  0  0  0  0  0  0  0  0  0  0  0
  1  8  4  0
  1 12  4  0
  2  9  1  0
  2 11  4  0
  2 25  4  0
  3 12  4  0
  3 14  1  0
  3 23  4  0
  4 13  4  0
  4 21  4  0
  4 24  1  0
  5  8  4  0
  5 23  4  0
  6 18  2  0
  7 15  4  0
  7 16  1  0
  7 27  4  0
  8 18  1  0
 10 18  1  0
 10 20  1  0
 11 15  4  0
 11 26  1  0
 13 22  4  0
 16 19  1  0
 16 20  2  0
 17 19  4  0
 17 21  4  0
 19 22  4  0
 20 28  1  0
 25 27  4  0
M  END
$$$$

 Created by Python create_sdf_string function

 28 30  0  0  0  0  0  0  0  0999 V2000
   11.4592   11.2893   18.7941 C   0  0  0  0  0  0  0  0  0  0  0  0
    3.4202    7.9009   20.3866 C   0  0  0  0  0  0  0  0  0  0  0  0
   13.5280   10.3522   19.3586 C   0  0  0  0  0  0  0  0  0  0  0  0
    9.6923    5.6468   22.7891 C   0  0  0  0  0  0  0  0  0  0  0  0
   11.7756   10.2554   20.8841 N   0  0  0  0  0  0  0  0  0  0  0  0
    8.9876   11.9370   19.8757 O   0  0  0  0  0  0  0  0  0  0  0  0
    6.0167    8.4478   21.1089 C   0  0  0  0  0  0  0  0  0  0  0  0
   11.0002   10.8890   20.0262 C   0  0  0  0  0  0  0  0  0  0  0  0
    2.1721    7.7393   20.0315 O   0  0  0  0  0  0  0  0  0  0  0  0
    9.1107   10.3880   21.3769 N   0  0  0  0  0  0  0  0  0  0  0  0
    3.9102    9.2008   20.3124 C   0  0  0  0  0  0  0  0  0  0  0  0
   12.7292   10.9960   18.4597 C   0  0  0  0  0  0  0  0  0  0  0  0
    9.3798    6.6793   23.6625 C   0  0  0  0  0  0  0  0  0  0  0  0
   14.7425   10.0739   19.0802 O   0  0  0  0  0  0  0  0  0  0  0  0
    5.1894    9.4673   20.7118 C   0  0  0  0  0  0  0  0  0  0  0  0
    7.3773    8.8224   21.4870 C   0  0  0  0  0  0  0  0  0  0  0  0
    8.4391    6.6439   21.0235 C   0  0  0  0  0  0  0  0  0  0  0  0
    9.6494   11.1353   20.4167 C   0  0  0  0  0  0  0  0  0  0  0  0
    8.1431    7.6829   21.9046 C   0  0  0  0  0  0  0  0  0  0  0  0
    7.7796   10.1314   21.5115 N   0  0  0  0  0  0  0  0  0  0  0  0
    9.2768    5.6183   21.4437 C   0  0  0  0  0  0  0  0  0  0  0  0
    8.6315    7.7322   23.1768 C   0  0  0  0  0  0  0  0  0  0  0  0
   13.0537    9.9821   20.5781 C   0  0  0  0  0  0  0  0  0  0  0  0
   10.3850    4.6575   23.2386 O   0  0  0  0  0  0  0  0  0  0  0  0
    4.2069    6.8450   20.7994 C   0  0  0  0  0  0  0  0  0  0  0  0
    3.0726   10.1043   19.8522 O   0  0  0  0  0  0  0  0  0  0  0  0
    5.5057    7.1196   21.1155 C   0  0  0  0  0  0  0  0  0  0  0  0
    7.0367   11.0229   21.9948 O   0  0  0  0  0  0  0  0  0  0  0  0
  1  8  4  0
  1 12  4  0
  2  9  1  0
  2 11  4  0
  2 25  4  0
  3 12  4  0
  3 14  1  0
  3 23  4  0
  4 13  4  0
  4 21  4  0
  4 24  1  0
  5  8  4  0
  5 23  4  0
  6 18  2  0
  7 15  4  0
  7 16  1  0
  7 27  4  0
  8 18  1  0
 10 18  1  0
 10 20  1  0
 11 15  4  0
 11 26  1  0
 13 22  4  0
 16 19  1  0
 16 20  2  0
 17 19  4  0
 17 21  4  0
 19 22  4  0
 20 28  1  0
 25 27  4  0
M  END
$$$$

 Created by Python create_sdf_string function

 28 30  0  0  0  0  0  0  0  0999 V2000
   11.4592   11.2893   18.7941 C   0  0  0  0  0  0  0  0  0  0  0  0
    3.4202    7.9009   20.3866 C   0  0  0  0  0  0  0  0  0  0  0  0
   13.5280   10.3522   19.3586 C   0  0  0  0  0  0  0  0  0  0  0  0
    9.6923    5.6468   22.7891 C   0  0  0  0  0  0  0  0  0  0  0  0
   11.7756   10.2554   20.8841 N   0  0  0  0  0  0  0  0  0  0  0  0
    8.9876   11.9370   19.8757 O   0  0  0  0  0  0  0  0  0  0  0  0
    6.0167    8.4478   21.1089 C   0  0  0  0  0  0  0  0  0  0  0  0
   11.0002   10.8890   20.0262 C   0  0  0  0  0  0  0  0  0  0  0  0
    2.1721    7.7393   20.0315 O   0  0  0  0  0  0  0  0  0  0  0  0
    9.1107   10.3880   21.3769 N   0  0  0  0  0  0  0  0  0  0  0  0
    3.9102    9.2008   20.3124 C   0  0  0  0  0  0  0  0  0  0  0  0
   12.7292   10.9960   18.4597 C   0  0  0  0  0  0  0  0  0  0  0  0
    9.3798    6.6793   23.6625 C   0  0  0  0  0  0  0  0  0  0  0  0
   14.7425   10.0739   19.0802 O   0  0  0  0  0  0  0  0  0  0  0  0
    5.1894    9.4673   20.7118 C   0  0  0  0  0  0  0  0  0  0  0  0
    7.3773    8.8224   21.4870 C   0  0  0  0  0  0  0  0  0  0  0  0
    8.4391    6.6439   21.0235 C   0  0  0  0  0  0  0  0  0  0  0  0
    9.6494   11.1353   20.4167 C   0  0  0  0  0  0  0  0  0  0  0  0
    8.1431    7.6829   21.9046 C   0  0  0  0  0  0  0  0  0  0  0  0
    7.7796   10.1314   21.5115 N   0  0  0  0  0  0  0  0  0  0  0  0
    9.2768    5.6183   21.4437 C   0  0  0  0  0  0  0  0  0  0  0  0
    8.6315    7.7322   23.1768 C   0  0  0  0  0  0  0  0  0  0  0  0
   13.0537    9.9821   20.5781 C   0  0  0  0  0  0  0  0  0  0  0  0
   10.3850    4.6575   23.2386 O   0  0  0  0  0  0  0  0  0  0  0  0
    4.2069    6.8450   20.7994 C   0  0  0  0  0  0  0  0  0  0  0  0
    3.0726   10.1043   19.8522 O   0  0  0  0  0  0  0  0  0  0  0  0
    5.5057    7.1196   21.1155 C   0  0  0  0  0  0  0  0  0  0  0  0
    7.0367   11.0229   21.9948 O   0  0  0  0  0  0  0  0  0  0  0  0
  1  8  4  0
  1 12  4  0
  2  9  1  0
  2 11  4  0
  2 25  4  0
  3 12  4  0
  3 14  1  0
  3 23  4  0
  4 13  4  0
  4 21  4  0
  4 24  1  0
  5  8  4  0
  5 23  4  0
  6 18  2  0
  7 15  4  0
  7 16  1  0
  7 27  4  0
  8 18  1  0
 10 18  1  0
 10 20  1  0
 11 15  4  0
 11 26  1  0
 13 22  4  0
 16 19  1  0
 16 20  2  0
 17 19  4  0
 17 21  4  0
 19 22  4  0
 20 28  1  0
 25 27  4  0
M  END
$$$$

 Created by Python create_sdf_string function

 28 30  0  0  0  0  0  0  0  0999 V2000
   11.4592   11.2893   18.7941 C   0  0  0  0  0  0  0  0  0  0  0  0
    3.4202    7.9009   20.3866 C   0  0  0  0  0  0  0  0  0  0  0  0
   13.5280   10.3522   19.3586 C   0  0  0  0  0  0  0  0  0  0  0  0
    9.6923    5.6468   22.7891 C   0  0  0  0  0  0  0  0  0  0  0  0
   11.7756   10.2554   20.8841 N   0  0  0  0  0  0  0  0  0  0  0  0
    8.9876   11.9370   19.8757 O   0  0  0  0  0  0  0  0  0  0  0  0
    6.0167    8.4478   21.1089 C   0  0  0  0  0  0  0  0  0  0  0  0
   11.0002   10.8890   20.0262 C   0  0  0  0  0  0  0  0  0  0  0  0
    2.1721    7.7393   20.0315 O   0  0  0  0  0  0  0  0  0  0  0  0
    9.1107   10.3880   21.3769 N   0  0  0  0  0  0  0  0  0  0  0  0
    3.9102    9.2008   20.3124 C   0  0  0  0  0  0  0  0  0  0  0  0
   12.7292   10.9960   18.4597 C   0  0  0  0  0  0  0  0  0  0  0  0
    9.3798    6.6793   23.6625 C   0  0  0  0  0  0  0  0  0  0  0  0
   14.7425   10.0739   19.0802 O   0  0  0  0  0  0  0  0  0  0  0  0
    5.1894    9.4673   20.7118 C   0  0  0  0  0  0  0  0  0  0  0  0
    7.3773    8.8224   21.4870 C   0  0  0  0  0  0  0  0  0  0  0  0
    8.4391    6.6439   21.0235 C   0  0  0  0  0  0  0  0  0  0  0  0
    9.6494   11.1353   20.4167 C   0  0  0  0  0  0  0  0  0  0  0  0
    8.1431    7.6829   21.9046 C   0  0  0  0  0  0  0  0  0  0  0  0
    7.7796   10.1314   21.5115 N   0  0  0  0  0  0  0  0  0  0  0  0
    9.2768    5.6183   21.4437 C   0  0  0  0  0  0  0  0  0  0  0  0
    8.6315    7.7322   23.1768 C   0  0  0  0  0  0  0  0  0  0  0  0
   13.0537    9.9821   20.5781 C   0  0  0  0  0  0  0  0  0  0  0  0
   10.3850    4.6575   23.2386 O   0  0  0  0  0  0  0  0  0  0  0  0
    4.2069    6.8450   20.7994 C   0  0  0  0  0  0  0  0  0  0  0  0
    3.0726   10.1043   19.8522 O   0  0  0  0  0  0  0  0  0  0  0  0
    5.5057    7.1196   21.1155 C   0  0  0  0  0  0  0  0  0  0  0  0
    7.0367   11.0229   21.9948 O   0  0  0  0  0  0  0  0  0  0  0  0
  1  8  4  0
  1 12  4  0
  2  9  1  0
  2 11  4  0
  2 25  4  0
  3 12  4  0
  3 14  1  0
  3 23  4  0
  4 13  4  0
  4 21  4  0
  4 24  1  0
  5  8  4  0
  5 23  4  0
  6 18  2  0
  7 15  4  0
  7 16  1  0
  7 27  4  0
  8 18  1  0
 10 18  1  0
 10 20  1  0
 11 15  4  0
 11 26  1  0
 13 22  4  0
 16 19  1  0
 16 20  2  0
 17 19  4  0
 17 21  4  0
 19 22  4  0
 20 28  1  0
 25 27  4  0
M  END
$$$$

 Created by Python create_sdf_string function

 28 30  0  0  0  0  0  0  0  0999 V2000
   11.4592   11.2893   18.7941 C   0  0  0  0  0  0  0  0  0  0  0  0
    3.4202    7.9009   20.3866 C   0  0  0  0  0  0  0  0  0  0  0  0
   13.5280   10.3522   19.3586 C   0  0  0  0  0  0  0  0  0  0  0  0
    9.6923    5.6468   22.7891 C   0  0  0  0  0  0  0  0  0  0  0  0
   11.7756   10.2554   20.8841 N   0  0  0  0  0  0  0  0  0  0  0  0
    8.9876   11.9370   19.8757 O   0  0  0  0  0  0  0  0  0  0  0  0
    6.0167    8.4478   21.1089 C   0  0  0  0  0  0  0  0  0  0  0  0
   11.0002   10.8890   20.0262 C   0  0  0  0  0  0  0  0  0  0  0  0
    2.1721    7.7393   20.0315 O   0  0  0  0  0  0  0  0  0  0  0  0
    9.1107   10.3880   21.3769 N   0  0  0  0  0  0  0  0  0  0  0  0
    3.9102    9.2008   20.3124 C   0  0  0  0  0  0  0  0  0  0  0  0
   12.7292   10.9960   18.4597 C   0  0  0  0  0  0  0  0  0  0  0  0
    9.3798    6.6793   23.6625 C   0  0  0  0  0  0  0  0  0  0  0  0
   14.7425   10.0739   19.0802 O   0  0  0  0  0  0  0  0  0  0  0  0
    5.1894    9.4673   20.7118 C   0  0  0  0  0  0  0  0  0  0  0  0
    7.3773    8.8224   21.4870 C   0  0  0  0  0  0  0  0  0  0  0  0
    8.4391    6.6439   21.0235 C   0  0  0  0  0  0  0  0  0  0  0  0
    9.6494   11.1353   20.4167 C   0  0  0  0  0  0  0  0  0  0  0  0
    8.1431    7.6829   21.9046 C   0  0  0  0  0  0  0  0  0  0  0  0
    7.7796   10.1314   21.5115 N   0  0  0  0  0  0  0  0  0  0  0  0
    9.2768    5.6183   21.4437 C   0  0  0  0  0  0  0  0  0  0  0  0
    8.6315    7.7322   23.1768 C   0  0  0  0  0  0  0  0  0  0  0  0
   13.0537    9.9821   20.5781 C   0  0  0  0  0  0  0  0  0  0  0  0
   10.3850    4.6575   23.2386 O   0  0  0  0  0  0  0  0  0  0  0  0
    4.2069    6.8450   20.7994 C   0  0  0  0  0  0  0  0  0  0  0  0
    3.0726   10.1043   19.8522 O   0  0  0  0  0  0  0  0  0  0  0  0
    5.5057    7.1196   21.1155 C   0  0  0  0  0  0  0  0  0  0  0  0
    7.0367   11.0229   21.9948 O   0  0  0  0  0  0  0  0  0  0  0  0
  1  8  4  0
  1 12  4  0
  2  9  1  0
  2 11  4  0
  2 25  4  0
  3 12  4  0
  3 14  1  0
  3 23  4  0
  4 13  4  0
  4 21  4  0
  4 24  1  0
  5  8  4  0
  5 23  4  0
  6 18  2  0
  7 15  4  0
  7 16  1  0
  7 27  4  0
  8 18  1  0
 10 18  1  0
 10 20  1  0
 11 15  4  0
 11 26  1  0
 13 22  4  0
 16 19  1  0
 16 20  2  0
 17 19  4  0
 17 21  4  0
 19 22  4  0
 20 28  1  0
 25 27  4  0
M  END
$$$$

 Created by Python create_sdf_string function

 28 30  0  0  0  0  0  0  0  0999 V2000
   11.4592   11.2893   18.7941 C   0  0  0  0  0  0  0  0  0  0  0  0
    3.4202    7.9009   20.3866 C   0  0  0  0  0  0  0  0  0  0  0  0
   13.5280   10.3522   19.3586 C   0  0  0  0  0  0  0  0  0  0  0  0
    9.6923    5.6468   22.7891 C   0  0  0  0  0  0  0  0  0  0  0  0
   11.7756   10.2554   20.8841 N   0  0  0  0  0  0  0  0  0  0  0  0
    8.9876   11.9370   19.8757 O   0  0  0  0  0  0  0  0  0  0  0  0
    6.0167    8.4478   21.1089 C   0  0  0  0  0  0  0  0  0  0  0  0
   11.0002   10.8890   20.0262 C   0  0  0  0  0  0  0  0  0  0  0  0
    2.1721    7.7393   20.0315 O   0  0  0  0  0  0  0  0  0  0  0  0
    9.1107   10.3880   21.3769 N   0  0  0  0  0  0  0  0  0  0  0  0
    3.9102    9.2008   20.3124 C   0  0  0  0  0  0  0  0  0  0  0  0
   12.7292   10.9960   18.4597 C   0  0  0  0  0  0  0  0  0  0  0  0
    9.3798    6.6793   23.6625 C   0  0  0  0  0  0  0  0  0  0  0  0
   14.7425   10.0739   19.0802 O   0  0  0  0  0  0  0  0  0  0  0  0
    5.1894    9.4673   20.7118 C   0  0  0  0  0  0  0  0  0  0  0  0
    7.3773    8.8224   21.4870 C   0  0  0  0  0  0  0  0  0  0  0  0
    8.4391    6.6439   21.0235 C   0  0  0  0  0  0  0  0  0  0  0  0
    9.6494   11.1353   20.4167 C   0  0  0  0  0  0  0  0  0  0  0  0
    8.1431    7.6829   21.9046 C   0  0  0  0  0  0  0  0  0  0  0  0
    7.7796   10.1314   21.5115 N   0  0  0  0  0  0  0  0  0  0  0  0
    9.2768    5.6183   21.4437 C   0  0  0  0  0  0  0  0  0  0  0  0
    8.6315    7.7322   23.1768 C   0  0  0  0  0  0  0  0  0  0  0  0
   13.0537    9.9821   20.5781 C   0  0  0  0  0  0  0  0  0  0  0  0
   10.3850    4.6575   23.2386 O   0  0  0  0  0  0  0  0  0  0  0  0
    4.2069    6.8450   20.7994 C   0  0  0  0  0  0  0  0  0  0  0  0
    3.0726   10.1043   19.8522 O   0  0  0  0  0  0  0  0  0  0  0  0
    5.5057    7.1196   21.1155 C   0  0  0  0  0  0  0  0  0  0  0  0
    7.0367   11.0229   21.9948 O   0  0  0  0  0  0  0  0  0  0  0  0
  1  8  4  0
  1 12  4  0
  2  9  1  0
  2 11  4  0
  2 25  4  0
  3 12  4  0
  3 14  1  0
  3 23  4  0
  4 13  4  0
  4 21  4  0
  4 24  1  0
  5  8  4  0
  5 23  4  0
  6 18  2  0
  7 15  4  0
  7 16  1  0
  7 27  4  0
  8 18  1  0
 10 18  1  0
 10 20  1  0
 11 15  4  0
 11 26  1  0
 13 22  4  0
 16 19  1  0
 16 20  2  0
 17 19  4  0
 17 21  4  0
 19 22  4  0
 20 28  1  0
 25 27  4  0
M  END
$$$$

 Created by Python create_sdf_string function

 28 30  0  0  0  0  0  0  0  0999 V2000
   11.4592   11.2893   18.7941 C   0  0  0  0  0  0  0  0  0  0  0  0
    3.4202    7.9009   20.3866 C   0  0  0  0  0  0  0  0  0  0  0  0
   13.5280   10.3522   19.3586 C   0  0  0  0  0  0  0  0  0  0  0  0
    9.6923    5.6468   22.7891 C   0  0  0  0  0  0  0  0  0  0  0  0
   11.7756   10.2554   20.8841 N   0  0  0  0  0  0  0  0  0  0  0  0
    8.9876   11.9370   19.8757 O   0  0  0  0  0  0  0  0  0  0  0  0
    6.0167    8.4478   21.1089 C   0  0  0  0  0  0  0  0  0  0  0  0
   11.0002   10.8890   20.0262 C   0  0  0  0  0  0  0  0  0  0  0  0
    2.1721    7.7393   20.0315 O   0  0  0  0  0  0  0  0  0  0  0  0
    9.1107   10.3880   21.3769 N   0  0  0  0  0  0  0  0  0  0  0  0
    3.9102    9.2008   20.3124 C   0  0  0  0  0  0  0  0  0  0  0  0
   12.7292   10.9960   18.4597 C   0  0  0  0  0  0  0  0  0  0  0  0
    9.3798    6.6793   23.6625 C   0  0  0  0  0  0  0  0  0  0  0  0
   14.7425   10.0739   19.0802 O   0  0  0  0  0  0  0  0  0  0  0  0
    5.1894    9.4673   20.7118 C   0  0  0  0  0  0  0  0  0  0  0  0
    7.3773    8.8224   21.4870 C   0  0  0  0  0  0  0  0  0  0  0  0
    8.4391    6.6439   21.0235 C   0  0  0  0  0  0  0  0  0  0  0  0
    9.6494   11.1353   20.4167 C   0  0  0  0  0  0  0  0  0  0  0  0
    8.1431    7.6829   21.9046 C   0  0  0  0  0  0  0  0  0  0  0  0
    7.7796   10.1314   21.5115 N   0  0  0  0  0  0  0  0  0  0  0  0
    9.2768    5.6183   21.4437 C   0  0  0  0  0  0  0  0  0  0  0  0
    8.6315    7.7322   23.1768 C   0  0  0  0  0  0  0  0  0  0  0  0
   13.0537    9.9821   20.5781 C   0  0  0  0  0  0  0  0  0  0  0  0
   10.3850    4.6575   23.2386 O   0  0  0  0  0  0  0  0  0  0  0  0
    4.2069    6.8450   20.7994 C   0  0  0  0  0  0  0  0  0  0  0  0
    3.0726   10.1043   19.8522 O   0  0  0  0  0  0  0  0  0  0  0  0
    5.5057    7.1196   21.1155 C   0  0  0  0  0  0  0  0  0  0  0  0
    7.0367   11.0229   21.9948 O   0  0  0  0  0  0  0  0  0  0  0  0
  1  8  4  0
  1 12  4  0
  2  9  1  0
  2 11  4  0
  2 25  4  0
  3 12  4  0
  3 14  1  0
  3 23  4  0
  4 13  4  0
  4 21  4  0
  4 24  1  0
  5  8  4  0
  5 23  4  0
  6 18  2  0
  7 15  4  0
  7 16  1  0
  7 27  4  0
  8 18  1  0
 10 18  1  0
 10 20  1  0
 11 15  4  0
 11 26  1  0
 13 22  4  0
 16 19  1  0
 16 20  2  0
 17 19  4  0
 17 21  4  0
 19 22  4  0
 20 28  1  0
 25 27  4  0
M  END
$$$$

 Created by Python create_sdf_string function

 28 30  0  0  0  0  0  0  0  0999 V2000
   11.4592   11.2893   18.7941 C   0  0  0  0  0  0  0  0  0  0  0  0
    3.4202    7.9009   20.3866 C   0  0  0  0  0  0  0  0  0  0  0  0
   13.5280   10.3522   19.3586 C   0  0  0  0  0  0  0  0  0  0  0  0
    9.6923    5.6468   22.7891 C   0  0  0  0  0  0  0  0  0  0  0  0
   11.7756   10.2554   20.8841 N   0  0  0  0  0  0  0  0  0  0  0  0
    8.9876   11.9370   19.8757 O   0  0  0  0  0  0  0  0  0  0  0  0
    6.0167    8.4478   21.1089 C   0  0  0  0  0  0  0  0  0  0  0  0
   11.0002   10.8890   20.0262 C   0  0  0  0  0  0  0  0  0  0  0  0
    2.1721    7.7393   20.0315 O   0  0  0  0  0  0  0  0  0  0  0  0
    9.1107   10.3880   21.3769 N   0  0  0  0  0  0  0  0  0  0  0  0
    3.9102    9.2008   20.3124 C   0  0  0  0  0  0  0  0  0  0  0  0
   12.7292   10.9960   18.4597 C   0  0  0  0  0  0  0  0  0  0  0  0
    9.3798    6.6793   23.6625 C   0  0  0  0  0  0  0  0  0  0  0  0
   14.7425   10.0739   19.0802 O   0  0  0  0  0  0  0  0  0  0  0  0
    5.1894    9.4673   20.7118 C   0  0  0  0  0  0  0  0  0  0  0  0
    7.3773    8.8224   21.4870 C   0  0  0  0  0  0  0  0  0  0  0  0
    8.4391    6.6439   21.0235 C   0  0  0  0  0  0  0  0  0  0  0  0
    9.6494   11.1353   20.4167 C   0  0  0  0  0  0  0  0  0  0  0  0
    8.1431    7.6829   21.9046 C   0  0  0  0  0  0  0  0  0  0  0  0
    7.7796   10.1314   21.5115 N   0  0  0  0  0  0  0  0  0  0  0  0
    9.2768    5.6183   21.4437 C   0  0  0  0  0  0  0  0  0  0  0  0
    8.6315    7.7322   23.1768 C   0  0  0  0  0  0  0  0  0  0  0  0
   13.0537    9.9821   20.5781 C   0  0  0  0  0  0  0  0  0  0  0  0
   10.3850    4.6575   23.2386 O   0  0  0  0  0  0  0  0  0  0  0  0
    4.2069    6.8450   20.7994 C   0  0  0  0  0  0  0  0  0  0  0  0
    3.0726   10.1043   19.8522 O   0  0  0  0  0  0  0  0  0  0  0  0
    5.5057    7.1196   21.1155 C   0  0  0  0  0  0  0  0  0  0  0  0
    7.0367   11.0229   21.9948 O   0  0  0  0  0  0  0  0  0  0  0  0
  1  8  4  0
  1 12  4  0
  2  9  1  0
  2 11  4  0
  2 25  4  0
  3 12  4  0
  3 14  1  0
  3 23  4  0
  4 13  4  0
  4 21  4  0
  4 24  1  0
  5  8  4  0
  5 23  4  0
  6 18  2  0
  7 15  4  0
  7 16  1  0
  7 27  4  0
  8 18  1  0
 10 18  1  0
 10 20  1  0
 11 15  4  0
 11 26  1  0
 13 22  4  0
 16 19  1  0
 16 20  2  0
 17 19  4  0
 17 21  4  0
 19 22  4  0
 20 28  1  0
 25 27  4  0
M  END
$$$$

 Created by Python create_sdf_string function

 28 30  0  0  0  0  0  0  0  0999 V2000
   11.4592   11.2893   18.7941 C   0  0  0  0  0  0  0  0  0  0  0  0
    3.4202    7.9009   20.3866 C   0  0  0  0  0  0  0  0  0  0  0  0
   13.5280   10.3522   19.3586 C   0  0  0  0  0  0  0  0  0  0  0  0
    9.6923    5.6468   22.7891 C   0  0  0  0  0  0  0  0  0  0  0  0
   11.7756   10.2554   20.8841 N   0  0  0  0  0  0  0  0  0  0  0  0
    8.9876   11.9370   19.8757 O   0  0  0  0  0  0  0  0  0  0  0  0
    6.0167    8.4478   21.1089 C   0  0  0  0  0  0  0  0  0  0  0  0
   11.0002   10.8890   20.0262 C   0  0  0  0  0  0  0  0  0  0  0  0
    2.1721    7.7393   20.0315 O   0  0  0  0  0  0  0  0  0  0  0  0
    9.1107   10.3880   21.3769 N   0  0  0  0  0  0  0  0  0  0  0  0
    3.9102    9.2008   20.3124 C   0  0  0  0  0  0  0  0  0  0  0  0
   12.7292   10.9960   18.4597 C   0  0  0  0  0  0  0  0  0  0  0  0
    9.3798    6.6793   23.6625 C   0  0  0  0  0  0  0  0  0  0  0  0
   14.7425   10.0739   19.0802 O   0  0  0  0  0  0  0  0  0  0  0  0
    5.1894    9.4673   20.7118 C   0  0  0  0  0  0  0  0  0  0  0  0
    7.3773    8.8224   21.4870 C   0  0  0  0  0  0  0  0  0  0  0  0
    8.4391    6.6439   21.0235 C   0  0  0  0  0  0  0  0  0  0  0  0
    9.6494   11.1353   20.4167 C   0  0  0  0  0  0  0  0  0  0  0  0
    8.1431    7.6829   21.9046 C   0  0  0  0  0  0  0  0  0  0  0  0
    7.7796   10.1314   21.5115 N   0  0  0  0  0  0  0  0  0  0  0  0
    9.2768    5.6183   21.4437 C   0  0  0  0  0  0  0  0  0  0  0  0
    8.6315    7.7322   23.1768 C   0  0  0  0  0  0  0  0  0  0  0  0
   13.0537    9.9821   20.5781 C   0  0  0  0  0  0  0  0  0  0  0  0
   10.3850    4.6575   23.2386 O   0  0  0  0  0  0  0  0  0  0  0  0
    4.2069    6.8450   20.7994 C   0  0  0  0  0  0  0  0  0  0  0  0
    3.0726   10.1043   19.8522 O   0  0  0  0  0  0  0  0  0  0  0  0
    5.5057    7.1196   21.1155 C   0  0  0  0  0  0  0  0  0  0  0  0
    7.0367   11.0229   21.9948 O   0  0  0  0  0  0  0  0  0  0  0  0
  1  8  4  0
  1 12  4  0
  2  9  1  0
  2 11  4  0
  2 25  4  0
  3 12  4  0
  3 14  1  0
  3 23  4  0
  4 13  4  0
  4 21  4  0
  4 24  1  0
  5  8  4  0
  5 23  4  0
  6 18  2  0
  7 15  4  0
  7 16  1  0
  7 27  4  0
  8 18  1  0
 10 18  1  0
 10 20  1  0
 11 15  4  0
 11 26  1  0
 13 22  4  0
 16 19  1  0
 16 20  2  0
 17 19  4  0
 17 21  4  0
 19 22  4  0
 20 28  1  0
 25 27  4  0
M  END
$$$$

 Created by Python create_sdf_string function

 28 30  0  0  0  0  0  0  0  0999 V2000
   11.4592   11.2893   18.7941 C   0  0  0  0  0  0  0  0  0  0  0  0
    3.4202    7.9009   20.3866 C   0  0  0  0  0  0  0  0  0  0  0  0
   13.5280   10.3522   19.3586 C   0  0  0  0  0  0  0  0  0  0  0  0
    9.6923    5.6468   22.7891 C   0  0  0  0  0  0  0  0  0  0  0  0
   11.7756   10.2554   20.8841 N   0  0  0  0  0  0  0  0  0  0  0  0
    8.9876   11.9370   19.8757 O   0  0  0  0  0  0  0  0  0  0  0  0
    6.0167    8.4478   21.1089 C   0  0  0  0  0  0  0  0  0  0  0  0
   11.0002   10.8890   20.0262 C   0  0  0  0  0  0  0  0  0  0  0  0
    2.1721    7.7393   20.0315 O   0  0  0  0  0  0  0  0  0  0  0  0
    9.1107   10.3880   21.3769 N   0  0  0  0  0  0  0  0  0  0  0  0
    3.9102    9.2008   20.3124 C   0  0  0  0  0  0  0  0  0  0  0  0
   12.7292   10.9960   18.4597 C   0  0  0  0  0  0  0  0  0  0  0  0
    9.3798    6.6793   23.6625 C   0  0  0  0  0  0  0  0  0  0  0  0
   14.7425   10.0739   19.0802 O   0  0  0  0  0  0  0  0  0  0  0  0
    5.1894    9.4673   20.7118 C   0  0  0  0  0  0  0  0  0  0  0  0
    7.3773    8.8224   21.4870 C   0  0  0  0  0  0  0  0  0  0  0  0
    8.4391    6.6439   21.0235 C   0  0  0  0  0  0  0  0  0  0  0  0
    9.6494   11.1353   20.4167 C   0  0  0  0  0  0  0  0  0  0  0  0
    8.1431    7.6829   21.9046 C   0  0  0  0  0  0  0  0  0  0  0  0
    7.7796   10.1314   21.5115 N   0  0  0  0  0  0  0  0  0  0  0  0
    9.2768    5.6183   21.4437 C   0  0  0  0  0  0  0  0  0  0  0  0
    8.6315    7.7322   23.1768 C   0  0  0  0  0  0  0  0  0  0  0  0
   13.0537    9.9821   20.5781 C   0  0  0  0  0  0  0  0  0  0  0  0
   10.3850    4.6575   23.2386 O   0  0  0  0  0  0  0  0  0  0  0  0
    4.2069    6.8450   20.7994 C   0  0  0  0  0  0  0  0  0  0  0  0
    3.0726   10.1043   19.8522 O   0  0  0  0  0  0  0  0  0  0  0  0
    5.5057    7.1196   21.1155 C   0  0  0  0  0  0  0  0  0  0  0  0
    7.0367   11.0229   21.9948 O   0  0  0  0  0  0  0  0  0  0  0  0
  1  8  4  0
  1 12  4  0
  2  9  1  0
  2 11  4  0
  2 25  4  0
  3 12  4  0
  3 14  1  0
  3 23  4  0
  4 13  4  0
  4 21  4  0
  4 24  1  0
  5  8  4  0
  5 23  4  0
  6 18  2  0
  7 15  4  0
  7 16  1  0
  7 27  4  0
  8 18  1  0
 10 18  1  0
 10 20  1  0
 11 15  4  0
 11 26  1  0
 13 22  4  0
 16 19  1  0
 16 20  2  0
 17 19  4  0
 17 21  4  0
 19 22  4  0
 20 28  1  0
 25 27  4  0
M  END
$$$$

 Created by Python create_sdf_string function

 28 30  0  0  0  0  0  0  0  0999 V2000
   11.4592   11.2893   18.7941 C   0  0  0  0  0  0  0  0  0  0  0  0
    3.4202    7.9009   20.3866 C   0  0  0  0  0  0  0  0  0  0  0  0
   13.5280   10.3522   19.3586 C   0  0  0  0  0  0  0  0  0  0  0  0
    9.6923    5.6468   22.7891 C   0  0  0  0  0  0  0  0  0  0  0  0
   11.7756   10.2554   20.8841 N   0  0  0  0  0  0  0  0  0  0  0  0
    8.9876   11.9370   19.8757 O   0  0  0  0  0  0  0  0  0  0  0  0
    6.0167    8.4478   21.1089 C   0  0  0  0  0  0  0  0  0  0  0  0
   11.0002   10.8890   20.0262 C   0  0  0  0  0  0  0  0  0  0  0  0
    2.1721    7.7393   20.0315 O   0  0  0  0  0  0  0  0  0  0  0  0
    9.1107   10.3880   21.3769 N   0  0  0  0  0  0  0  0  0  0  0  0
    3.9102    9.2008   20.3124 C   0  0  0  0  0  0  0  0  0  0  0  0
   12.7292   10.9960   18.4597 C   0  0  0  0  0  0  0  0  0  0  0  0
    9.3798    6.6793   23.6625 C   0  0  0  0  0  0  0  0  0  0  0  0
   14.7425   10.0739   19.0802 O   0  0  0  0  0  0  0  0  0  0  0  0
    5.1894    9.4673   20.7118 C   0  0  0  0  0  0  0  0  0  0  0  0
    7.3773    8.8224   21.4870 C   0  0  0  0  0  0  0  0  0  0  0  0
    8.4391    6.6439   21.0235 C   0  0  0  0  0  0  0  0  0  0  0  0
    9.6494   11.1353   20.4167 C   0  0  0  0  0  0  0  0  0  0  0  0
    8.1431    7.6829   21.9046 C   0  0  0  0  0  0  0  0  0  0  0  0
    7.7796   10.1314   21.5115 N   0  0  0  0  0  0  0  0  0  0  0  0
    9.2768    5.6183   21.4437 C   0  0  0  0  0  0  0  0  0  0  0  0
    8.6315    7.7322   23.1768 C   0  0  0  0  0  0  0  0  0  0  0  0
   13.0537    9.9821   20.5781 C   0  0  0  0  0  0  0  0  0  0  0  0
   10.3850    4.6575   23.2386 O   0  0  0  0  0  0  0  0  0  0  0  0
    4.2069    6.8450   20.7994 C   0  0  0  0  0  0  0  0  0  0  0  0
    3.0726   10.1043   19.8522 O   0  0  0  0  0  0  0  0  0  0  0  0
    5.5057    7.1196   21.1155 C   0  0  0  0  0  0  0  0  0  0  0  0
    7.0367   11.0229   21.9948 O   0  0  0  0  0  0  0  0  0  0  0  0
  1  8  4  0
  1 12  4  0
  2  9  1  0
  2 11  4  0
  2 25  4  0
  3 12  4  0
  3 14  1  0
  3 23  4  0
  4 13  4  0
  4 21  4  0
  4 24  1  0
  5  8  4  0
  5 23  4  0
  6 18  2  0
  7 15  4  0
  7 16  1  0
  7 27  4  0
  8 18  1  0
 10 18  1  0
 10 20  1  0
 11 15  4  0
 11 26  1  0
 13 22  4  0
 16 19  1  0
 16 20  2  0
 17 19  4  0
 17 21  4  0
 19 22  4  0
 20 28  1  0
 25 27  4  0
M  END
$$$$

 Created by Python create_sdf_string function

 28 30  0  0  0  0  0  0  0  0999 V2000
   11.4592   11.2893   18.7941 C   0  0  0  0  0  0  0  0  0  0  0  0
    3.4202    7.9009   20.3866 C   0  0  0  0  0  0  0  0  0  0  0  0
   13.5280   10.3522   19.3586 C   0  0  0  0  0  0  0  0  0  0  0  0
    9.6923    5.6468   22.7891 C   0  0  0  0  0  0  0  0  0  0  0  0
   11.7756   10.2554   20.8841 N   0  0  0  0  0  0  0  0  0  0  0  0
    8.9876   11.9370   19.8757 O   0  0  0  0  0  0  0  0  0  0  0  0
    6.0167    8.4478   21.1089 C   0  0  0  0  0  0  0  0  0  0  0  0
   11.0002   10.8890   20.0262 C   0  0  0  0  0  0  0  0  0  0  0  0
    2.1721    7.7393   20.0315 O   0  0  0  0  0  0  0  0  0  0  0  0
    9.1107   10.3880   21.3769 N   0  0  0  0  0  0  0  0  0  0  0  0
    3.9102    9.2008   20.3124 C   0  0  0  0  0  0  0  0  0  0  0  0
   12.7292   10.9960   18.4597 C   0  0  0  0  0  0  0  0  0  0  0  0
    9.3798    6.6793   23.6625 C   0  0  0  0  0  0  0  0  0  0  0  0
   14.7425   10.0739   19.0802 O   0  0  0  0  0  0  0  0  0  0  0  0
    5.1894    9.4673   20.7118 C   0  0  0  0  0  0  0  0  0  0  0  0
    7.3773    8.8224   21.4870 C   0  0  0  0  0  0  0  0  0  0  0  0
    8.4391    6.6439   21.0235 C   0  0  0  0  0  0  0  0  0  0  0  0
    9.6494   11.1353   20.4167 C   0  0  0  0  0  0  0  0  0  0  0  0
    8.1431    7.6829   21.9046 C   0  0  0  0  0  0  0  0  0  0  0  0
    7.7796   10.1314   21.5115 N   0  0  0  0  0  0  0  0  0  0  0  0
    9.2768    5.6183   21.4437 C   0  0  0  0  0  0  0  0  0  0  0  0
    8.6315    7.7322   23.1768 C   0  0  0  0  0  0  0  0  0  0  0  0
   13.0537    9.9821   20.5781 C   0  0  0  0  0  0  0  0  0  0  0  0
   10.3850    4.6575   23.2386 O   0  0  0  0  0  0  0  0  0  0  0  0
    4.2069    6.8450   20.7994 C   0  0  0  0  0  0  0  0  0  0  0  0
    3.0726   10.1043   19.8522 O   0  0  0  0  0  0  0  0  0  0  0  0
    5.5057    7.1196   21.1155 C   0  0  0  0  0  0  0  0  0  0  0  0
    7.0367   11.0229   21.9948 O   0  0  0  0  0  0  0  0  0  0  0  0
  1  8  4  0
  1 12  4  0
  2  9  1  0
  2 11  4  0
  2 25  4  0
  3 12  4  0
  3 14  1  0
  3 23  4  0
  4 13  4  0
  4 21  4  0
  4 24  1  0
  5  8  4  0
  5 23  4  0
  6 18  2  0
  7 15  4  0
  7 16  1  0
  7 27  4  0
  8 18  1  0
 10 18  1  0
 10 20  1  0
 11 15  4  0
 11 26  1  0
 13 22  4  0
 16 19  1  0
 16 20  2  0
 17 19  4  0
 17 21  4  0
 19 22  4  0
 20 28  1  0
 25 27  4  0
M  END
$$$$

 Created by Python create_sdf_string function

 28 30  0  0  0  0  0  0  0  0999 V2000
   11.4592   11.2893   18.7941 C   0  0  0  0  0  0  0  0  0  0  0  0
    3.4202    7.9009   20.3866 C   0  0  0  0  0  0  0  0  0  0  0  0
   13.5280   10.3522   19.3586 C   0  0  0  0  0  0  0  0  0  0  0  0
    9.6923    5.6468   22.7891 C   0  0  0  0  0  0  0  0  0  0  0  0
   11.7756   10.2554   20.8841 N   0  0  0  0  0  0  0  0  0  0  0  0
    8.9876   11.9370   19.8757 O   0  0  0  0  0  0  0  0  0  0  0  0
    6.0167    8.4478   21.1089 C   0  0  0  0  0  0  0  0  0  0  0  0
   11.0002   10.8890   20.0262 C   0  0  0  0  0  0  0  0  0  0  0  0
    2.1721    7.7393   20.0315 O   0  0  0  0  0  0  0  0  0  0  0  0
    9.1107   10.3880   21.3769 N   0  0  0  0  0  0  0  0  0  0  0  0
    3.9102    9.2008   20.3124 C   0  0  0  0  0  0  0  0  0  0  0  0
   12.7292   10.9960   18.4597 C   0  0  0  0  0  0  0  0  0  0  0  0
    9.3798    6.6793   23.6625 C   0  0  0  0  0  0  0  0  0  0  0  0
   14.7425   10.0739   19.0802 O   0  0  0  0  0  0  0  0  0  0  0  0
    5.1894    9.4673   20.7118 C   0  0  0  0  0  0  0  0  0  0  0  0
    7.3773    8.8224   21.4870 C   0  0  0  0  0  0  0  0  0  0  0  0
    8.4391    6.6439   21.0235 C   0  0  0  0  0  0  0  0  0  0  0  0
    9.6494   11.1353   20.4167 C   0  0  0  0  0  0  0  0  0  0  0  0
    8.1431    7.6829   21.9046 C   0  0  0  0  0  0  0  0  0  0  0  0
    7.7796   10.1314   21.5115 N   0  0  0  0  0  0  0  0  0  0  0  0
    9.2768    5.6183   21.4437 C   0  0  0  0  0  0  0  0  0  0  0  0
    8.6315    7.7322   23.1768 C   0  0  0  0  0  0  0  0  0  0  0  0
   13.0537    9.9821   20.5781 C   0  0  0  0  0  0  0  0  0  0  0  0
   10.3850    4.6575   23.2386 O   0  0  0  0  0  0  0  0  0  0  0  0
    4.2069    6.8450   20.7994 C   0  0  0  0  0  0  0  0  0  0  0  0
    3.0726   10.1043   19.8522 O   0  0  0  0  0  0  0  0  0  0  0  0
    5.5057    7.1196   21.1155 C   0  0  0  0  0  0  0  0  0  0  0  0
    7.0367   11.0229   21.9948 O   0  0  0  0  0  0  0  0  0  0  0  0
  1  8  4  0
  1 12  4  0
  2  9  1  0
  2 11  4  0
  2 25  4  0
  3 12  4  0
  3 14  1  0
  3 23  4  0
  4 13  4  0
  4 21  4  0
  4 24  1  0
  5  8  4  0
  5 23  4  0
  6 18  2  0
  7 15  4  0
  7 16  1  0
  7 27  4  0
  8 18  1  0
 10 18  1  0
 10 20  1  0
 11 15  4  0
 11 26  1  0
 13 22  4  0
 16 19  1  0
 16 20  2  0
 17 19  4  0
 17 21  4  0
 19 22  4  0
 20 28  1  0
 25 27  4  0
M  END
$$$$

 Created by Python create_sdf_string function

 28 30  0  0  0  0  0  0  0  0999 V2000
   11.4592   11.2893   18.7941 C   0  0  0  0  0  0  0  0  0  0  0  0
    3.4202    7.9009   20.3866 C   0  0  0  0  0  0  0  0  0  0  0  0
   13.5280   10.3522   19.3586 C   0  0  0  0  0  0  0  0  0  0  0  0
    9.6923    5.6468   22.7891 C   0  0  0  0  0  0  0  0  0  0  0  0
   11.7756   10.2554   20.8841 N   0  0  0  0  0  0  0  0  0  0  0  0
    8.9876   11.9370   19.8757 O   0  0  0  0  0  0  0  0  0  0  0  0
    6.0167    8.4478   21.1089 C   0  0  0  0  0  0  0  0  0  0  0  0
   11.0002   10.8890   20.0262 C   0  0  0  0  0  0  0  0  0  0  0  0
    2.1721    7.7393   20.0315 O   0  0  0  0  0  0  0  0  0  0  0  0
    9.1107   10.3880   21.3769 N   0  0  0  0  0  0  0  0  0  0  0  0
    3.9102    9.2008   20.3124 C   0  0  0  0  0  0  0  0  0  0  0  0
   12.7292   10.9960   18.4597 C   0  0  0  0  0  0  0  0  0  0  0  0
    9.3798    6.6793   23.6625 C   0  0  0  0  0  0  0  0  0  0  0  0
   14.7425   10.0739   19.0802 O   0  0  0  0  0  0  0  0  0  0  0  0
    5.1894    9.4673   20.7118 C   0  0  0  0  0  0  0  0  0  0  0  0
    7.3773    8.8224   21.4870 C   0  0  0  0  0  0  0  0  0  0  0  0
    8.4391    6.6439   21.0235 C   0  0  0  0  0  0  0  0  0  0  0  0
    9.6494   11.1353   20.4167 C   0  0  0  0  0  0  0  0  0  0  0  0
    8.1431    7.6829   21.9046 C   0  0  0  0  0  0  0  0  0  0  0  0
    7.7796   10.1314   21.5115 N   0  0  0  0  0  0  0  0  0  0  0  0
    9.2768    5.6183   21.4437 C   0  0  0  0  0  0  0  0  0  0  0  0
    8.6315    7.7322   23.1768 C   0  0  0  0  0  0  0  0  0  0  0  0
   13.0537    9.9821   20.5781 C   0  0  0  0  0  0  0  0  0  0  0  0
   10.3850    4.6575   23.2386 O   0  0  0  0  0  0  0  0  0  0  0  0
    4.2069    6.8450   20.7994 C   0  0  0  0  0  0  0  0  0  0  0  0
    3.0726   10.1043   19.8522 O   0  0  0  0  0  0  0  0  0  0  0  0
    5.5057    7.1196   21.1155 C   0  0  0  0  0  0  0  0  0  0  0  0
    7.0367   11.0229   21.9948 O   0  0  0  0  0  0  0  0  0  0  0  0
  1  8  4  0
  1 12  4  0
  2  9  1  0
  2 11  4  0
  2 25  4  0
  3 12  4  0
  3 14  1  0
  3 23  4  0
  4 13  4  0
  4 21  4  0
  4 24  1  0
  5  8  4  0
  5 23  4  0
  6 18  2  0
  7 15  4  0
  7 16  1  0
  7 27  4  0
  8 18  1  0
 10 18  1  0
 10 20  1  0
 11 15  4  0
 11 26  1  0
 13 22  4  0
 16 19  1  0
 16 20  2  0
 17 19  4  0
 17 21  4  0
 19 22  4  0
 20 28  1  0
 25 27  4  0
M  END
$$$$

 Created by Python create_sdf_string function

 28 30  0  0  0  0  0  0  0  0999 V2000
   11.4592   11.2893   18.7941 C   0  0  0  0  0  0  0  0  0  0  0  0
    3.4202    7.9009   20.3866 C   0  0  0  0  0  0  0  0  0  0  0  0
   13.5280   10.3522   19.3586 C   0  0  0  0  0  0  0  0  0  0  0  0
    9.6923    5.6468   22.7891 C   0  0  0  0  0  0  0  0  0  0  0  0
   11.7756   10.2554   20.8841 N   0  0  0  0  0  0  0  0  0  0  0  0
    8.9876   11.9370   19.8757 O   0  0  0  0  0  0  0  0  0  0  0  0
    6.0167    8.4478   21.1089 C   0  0  0  0  0  0  0  0  0  0  0  0
   11.0002   10.8890   20.0262 C   0  0  0  0  0  0  0  0  0  0  0  0
    2.1721    7.7393   20.0315 O   0  0  0  0  0  0  0  0  0  0  0  0
    9.1107   10.3880   21.3769 N   0  0  0  0  0  0  0  0  0  0  0  0
    3.9102    9.2008   20.3124 C   0  0  0  0  0  0  0  0  0  0  0  0
   12.7292   10.9960   18.4597 C   0  0  0  0  0  0  0  0  0  0  0  0
    9.3798    6.6793   23.6625 C   0  0  0  0  0  0  0  0  0  0  0  0
   14.7425   10.0739   19.0802 O   0  0  0  0  0  0  0  0  0  0  0  0
    5.1894    9.4673   20.7118 C   0  0  0  0  0  0  0  0  0  0  0  0
    7.3773    8.8224   21.4870 C   0  0  0  0  0  0  0  0  0  0  0  0
    8.4391    6.6439   21.0235 C   0  0  0  0  0  0  0  0  0  0  0  0
    9.6494   11.1353   20.4167 C   0  0  0  0  0  0  0  0  0  0  0  0
    8.1431    7.6829   21.9046 C   0  0  0  0  0  0  0  0  0  0  0  0
    7.7796   10.1314   21.5115 N   0  0  0  0  0  0  0  0  0  0  0  0
    9.2768    5.6183   21.4437 C   0  0  0  0  0  0  0  0  0  0  0  0
    8.6315    7.7322   23.1768 C   0  0  0  0  0  0  0  0  0  0  0  0
   13.0537    9.9821   20.5781 C   0  0  0  0  0  0  0  0  0  0  0  0
   10.3850    4.6575   23.2386 O   0  0  0  0  0  0  0  0  0  0  0  0
    4.2069    6.8450   20.7994 C   0  0  0  0  0  0  0  0  0  0  0  0
    3.0726   10.1043   19.8522 O   0  0  0  0  0  0  0  0  0  0  0  0
    5.5057    7.1196   21.1155 C   0  0  0  0  0  0  0  0  0  0  0  0
    7.0367   11.0229   21.9948 O   0  0  0  0  0  0  0  0  0  0  0  0
  1  8  4  0
  1 12  4  0
  2  9  1  0
  2 11  4  0
  2 25  4  0
  3 12  4  0
  3 14  1  0
  3 23  4  0
  4 13  4  0
  4 21  4  0
  4 24  1  0
  5  8  4  0
  5 23  4  0
  6 18  2  0
  7 15  4  0
  7 16  1  0
  7 27  4  0
  8 18  1  0
 10 18  1  0
 10 20  1  0
 11 15  4  0
 11 26  1  0
 13 22  4  0
 16 19  1  0
 16 20  2  0
 17 19  4  0
 17 21  4  0
 19 22  4  0
 20 28  1  0
 25 27  4  0
M  END
$$$$

 Created by Python create_sdf_string function

 28 30  0  0  0  0  0  0  0  0999 V2000
   11.4592   11.2893   18.7941 C   0  0  0  0  0  0  0  0  0  0  0  0
    3.4202    7.9009   20.3866 C   0  0  0  0  0  0  0  0  0  0  0  0
   13.5280   10.3522   19.3586 C   0  0  0  0  0  0  0  0  0  0  0  0
    9.6923    5.6468   22.7891 C   0  0  0  0  0  0  0  0  0  0  0  0
   11.7756   10.2554   20.8841 N   0  0  0  0  0  0  0  0  0  0  0  0
    8.9876   11.9370   19.8757 O   0  0  0  0  0  0  0  0  0  0  0  0
    6.0167    8.4478   21.1089 C   0  0  0  0  0  0  0  0  0  0  0  0
   11.0002   10.8890   20.0262 C   0  0  0  0  0  0  0  0  0  0  0  0
    2.1721    7.7393   20.0315 O   0  0  0  0  0  0  0  0  0  0  0  0
    9.1107   10.3880   21.3769 N   0  0  0  0  0  0  0  0  0  0  0  0
    3.9102    9.2008   20.3124 C   0  0  0  0  0  0  0  0  0  0  0  0
   12.7292   10.9960   18.4597 C   0  0  0  0  0  0  0  0  0  0  0  0
    9.3798    6.6793   23.6625 C   0  0  0  0  0  0  0  0  0  0  0  0
   14.7425   10.0739   19.0802 O   0  0  0  0  0  0  0  0  0  0  0  0
    5.1894    9.4673   20.7118 C   0  0  0  0  0  0  0  0  0  0  0  0
    7.3773    8.8224   21.4870 C   0  0  0  0  0  0  0  0  0  0  0  0
    8.4391    6.6439   21.0235 C   0  0  0  0  0  0  0  0  0  0  0  0
    9.6494   11.1353   20.4167 C   0  0  0  0  0  0  0  0  0  0  0  0
    8.1431    7.6829   21.9046 C   0  0  0  0  0  0  0  0  0  0  0  0
    7.7796   10.1314   21.5115 N   0  0  0  0  0  0  0  0  0  0  0  0
    9.2768    5.6183   21.4437 C   0  0  0  0  0  0  0  0  0  0  0  0
    8.6315    7.7322   23.1768 C   0  0  0  0  0  0  0  0  0  0  0  0
   13.0537    9.9821   20.5781 C   0  0  0  0  0  0  0  0  0  0  0  0
   10.3850    4.6575   23.2386 O   0  0  0  0  0  0  0  0  0  0  0  0
    4.2069    6.8450   20.7994 C   0  0  0  0  0  0  0  0  0  0  0  0
    3.0726   10.1043   19.8522 O   0  0  0  0  0  0  0  0  0  0  0  0
    5.5057    7.1196   21.1155 C   0  0  0  0  0  0  0  0  0  0  0  0
    7.0367   11.0229   21.9948 O   0  0  0  0  0  0  0  0  0  0  0  0
  1  8  4  0
  1 12  4  0
  2  9  1  0
  2 11  4  0
  2 25  4  0
  3 12  4  0
  3 14  1  0
  3 23  4  0
  4 13  4  0
  4 21  4  0
  4 24  1  0
  5  8  4  0
  5 23  4  0
  6 18  2  0
  7 15  4  0
  7 16  1  0
  7 27  4  0
  8 18  1  0
 10 18  1  0
 10 20  1  0
 11 15  4  0
 11 26  1  0
 13 22  4  0
 16 19  1  0
 16 20  2  0
 17 19  4  0
 17 21  4  0
 19 22  4  0
 20 28  1  0
 25 27  4  0
M  END
$$$$

 Created by Python create_sdf_string function

 28 30  0  0  0  0  0  0  0  0999 V2000
   11.4592   11.2893   18.7941 C   0  0  0  0  0  0  0  0  0  0  0  0
    3.4202    7.9009   20.3866 C   0  0  0  0  0  0  0  0  0  0  0  0
   13.5280   10.3522   19.3586 C   0  0  0  0  0  0  0  0  0  0  0  0
    9.6923    5.6468   22.7891 C   0  0  0  0  0  0  0  0  0  0  0  0
   11.7756   10.2554   20.8841 N   0  0  0  0  0  0  0  0  0  0  0  0
    8.9876   11.9370   19.8757 O   0  0  0  0  0  0  0  0  0  0  0  0
    6.0167    8.4478   21.1089 C   0  0  0  0  0  0  0  0  0  0  0  0
   11.0002   10.8890   20.0262 C   0  0  0  0  0  0  0  0  0  0  0  0
    2.1721    7.7393   20.0315 O   0  0  0  0  0  0  0  0  0  0  0  0
    9.1107   10.3880   21.3769 N   0  0  0  0  0  0  0  0  0  0  0  0
    3.9102    9.2008   20.3124 C   0  0  0  0  0  0  0  0  0  0  0  0
   12.7292   10.9960   18.4597 C   0  0  0  0  0  0  0  0  0  0  0  0
    9.3798    6.6793   23.6625 C   0  0  0  0  0  0  0  0  0  0  0  0
   14.7425   10.0739   19.0802 O   0  0  0  0  0  0  0  0  0  0  0  0
    5.1894    9.4673   20.7118 C   0  0  0  0  0  0  0  0  0  0  0  0
    7.3773    8.8224   21.4870 C   0  0  0  0  0  0  0  0  0  0  0  0
    8.4391    6.6439   21.0235 C   0  0  0  0  0  0  0  0  0  0  0  0
    9.6494   11.1353   20.4167 C   0  0  0  0  0  0  0  0  0  0  0  0
    8.1431    7.6829   21.9046 C   0  0  0  0  0  0  0  0  0  0  0  0
    7.7796   10.1314   21.5115 N   0  0  0  0  0  0  0  0  0  0  0  0
    9.2768    5.6183   21.4437 C   0  0  0  0  0  0  0  0  0  0  0  0
    8.6315    7.7322   23.1768 C   0  0  0  0  0  0  0  0  0  0  0  0
   13.0537    9.9821   20.5781 C   0  0  0  0  0  0  0  0  0  0  0  0
   10.3850    4.6575   23.2386 O   0  0  0  0  0  0  0  0  0  0  0  0
    4.2069    6.8450   20.7994 C   0  0  0  0  0  0  0  0  0  0  0  0
    3.0726   10.1043   19.8522 O   0  0  0  0  0  0  0  0  0  0  0  0
    5.5057    7.1196   21.1155 C   0  0  0  0  0  0  0  0  0  0  0  0
    7.0367   11.0229   21.9948 O   0  0  0  0  0  0  0  0  0  0  0  0
  1  8  4  0
  1 12  4  0
  2  9  1  0
  2 11  4  0
  2 25  4  0
  3 12  4  0
  3 14  1  0
  3 23  4  0
  4 13  4  0
  4 21  4  0
  4 24  1  0
  5  8  4  0
  5 23  4  0
  6 18  2  0
  7 15  4  0
  7 16  1  0
  7 27  4  0
  8 18  1  0
 10 18  1  0
 10 20  1  0
 11 15  4  0
 11 26  1  0
 13 22  4  0
 16 19  1  0
 16 20  2  0
 17 19  4  0
 17 21  4  0
 19 22  4  0
 20 28  1  0
 25 27  4  0
M  END
$$$$

 Created by Python create_sdf_string function

 28 30  0  0  0  0  0  0  0  0999 V2000
   11.4592   11.2893   18.7941 C   0  0  0  0  0  0  0  0  0  0  0  0
    3.4202    7.9009   20.3866 C   0  0  0  0  0  0  0  0  0  0  0  0
   13.5280   10.3522   19.3586 C   0  0  0  0  0  0  0  0  0  0  0  0
    9.6923    5.6468   22.7891 C   0  0  0  0  0  0  0  0  0  0  0  0
   11.7756   10.2554   20.8841 N   0  0  0  0  0  0  0  0  0  0  0  0
    8.9876   11.9370   19.8757 O   0  0  0  0  0  0  0  0  0  0  0  0
    6.0167    8.4478   21.1089 C   0  0  0  0  0  0  0  0  0  0  0  0
   11.0002   10.8890   20.0262 C   0  0  0  0  0  0  0  0  0  0  0  0
    2.1721    7.7393   20.0315 O   0  0  0  0  0  0  0  0  0  0  0  0
    9.1107   10.3880   21.3769 N   0  0  0  0  0  0  0  0  0  0  0  0
    3.9102    9.2008   20.3124 C   0  0  0  0  0  0  0  0  0  0  0  0
   12.7292   10.9960   18.4597 C   0  0  0  0  0  0  0  0  0  0  0  0
    9.3798    6.6793   23.6625 C   0  0  0  0  0  0  0  0  0  0  0  0
   14.7425   10.0739   19.0802 O   0  0  0  0  0  0  0  0  0  0  0  0
    5.1894    9.4673   20.7118 C   0  0  0  0  0  0  0  0  0  0  0  0
    7.3773    8.8224   21.4870 C   0  0  0  0  0  0  0  0  0  0  0  0
    8.4391    6.6439   21.0235 C   0  0  0  0  0  0  0  0  0  0  0  0
    9.6494   11.1353   20.4167 C   0  0  0  0  0  0  0  0  0  0  0  0
    8.1431    7.6829   21.9046 C   0  0  0  0  0  0  0  0  0  0  0  0
    7.7796   10.1314   21.5115 N   0  0  0  0  0  0  0  0  0  0  0  0
    9.2768    5.6183   21.4437 C   0  0  0  0  0  0  0  0  0  0  0  0
    8.6315    7.7322   23.1768 C   0  0  0  0  0  0  0  0  0  0  0  0
   13.0537    9.9821   20.5781 C   0  0  0  0  0  0  0  0  0  0  0  0
   10.3850    4.6575   23.2386 O   0  0  0  0  0  0  0  0  0  0  0  0
    4.2069    6.8450   20.7994 C   0  0  0  0  0  0  0  0  0  0  0  0
    3.0726   10.1043   19.8522 O   0  0  0  0  0  0  0  0  0  0  0  0
    5.5057    7.1196   21.1155 C   0  0  0  0  0  0  0  0  0  0  0  0
    7.0367   11.0229   21.9948 O   0  0  0  0  0  0  0  0  0  0  0  0
  1  8  4  0
  1 12  4  0
  2  9  1  0
  2 11  4  0
  2 25  4  0
  3 12  4  0
  3 14  1  0
  3 23  4  0
  4 13  4  0
  4 21  4  0
  4 24  1  0
  5  8  4  0
  5 23  4  0
  6 18  2  0
  7 15  4  0
  7 16  1  0
  7 27  4  0
  8 18  1  0
 10 18  1  0
 10 20  1  0
 11 15  4  0
 11 26  1  0
 13 22  4  0
 16 19  1  0
 16 20  2  0
 17 19  4  0
 17 21  4  0
 19 22  4  0
 20 28  1  0
 25 27  4  0
M  END
$$$$

 Created by Python create_sdf_string function

 28 30  0  0  0  0  0  0  0  0999 V2000
   11.4592   11.2893   18.7941 C   0  0  0  0  0  0  0  0  0  0  0  0
    3.4202    7.9009   20.3866 C   0  0  0  0  0  0  0  0  0  0  0  0
   13.5280   10.3522   19.3586 C   0  0  0  0  0  0  0  0  0  0  0  0
    9.6923    5.6468   22.7891 C   0  0  0  0  0  0  0  0  0  0  0  0
   11.7756   10.2554   20.8841 N   0  0  0  0  0  0  0  0  0  0  0  0
    8.9876   11.9370   19.8757 O   0  0  0  0  0  0  0  0  0  0  0  0
    6.0167    8.4478   21.1089 C   0  0  0  0  0  0  0  0  0  0  0  0
   11.0002   10.8890   20.0262 C   0  0  0  0  0  0  0  0  0  0  0  0
    2.1721    7.7393   20.0315 O   0  0  0  0  0  0  0  0  0  0  0  0
    9.1107   10.3880   21.3769 N   0  0  0  0  0  0  0  0  0  0  0  0
    3.9102    9.2008   20.3124 C   0  0  0  0  0  0  0  0  0  0  0  0
   12.7292   10.9960   18.4597 C   0  0  0  0  0  0  0  0  0  0  0  0
    9.3798    6.6793   23.6625 C   0  0  0  0  0  0  0  0  0  0  0  0
   14.7425   10.0739   19.0802 O   0  0  0  0  0  0  0  0  0  0  0  0
    5.1894    9.4673   20.7118 C   0  0  0  0  0  0  0  0  0  0  0  0
    7.3773    8.8224   21.4870 C   0  0  0  0  0  0  0  0  0  0  0  0
    8.4391    6.6439   21.0235 C   0  0  0  0  0  0  0  0  0  0  0  0
    9.6494   11.1353   20.4167 C   0  0  0  0  0  0  0  0  0  0  0  0
    8.1431    7.6829   21.9046 C   0  0  0  0  0  0  0  0  0  0  0  0
    7.7796   10.1314   21.5115 N   0  0  0  0  0  0  0  0  0  0  0  0
    9.2768    5.6183   21.4437 C   0  0  0  0  0  0  0  0  0  0  0  0
    8.6315    7.7322   23.1768 C   0  0  0  0  0  0  0  0  0  0  0  0
   13.0537    9.9821   20.5781 C   0  0  0  0  0  0  0  0  0  0  0  0
   10.3850    4.6575   23.2386 O   0  0  0  0  0  0  0  0  0  0  0  0
    4.2069    6.8450   20.7994 C   0  0  0  0  0  0  0  0  0  0  0  0
    3.0726   10.1043   19.8522 O   0  0  0  0  0  0  0  0  0  0  0  0
    5.5057    7.1196   21.1155 C   0  0  0  0  0  0  0  0  0  0  0  0
    7.0367   11.0229   21.9948 O   0  0  0  0  0  0  0  0  0  0  0  0
  1  8  4  0
  1 12  4  0
  2  9  1  0
  2 11  4  0
  2 25  4  0
  3 12  4  0
  3 14  1  0
  3 23  4  0
  4 13  4  0
  4 21  4  0
  4 24  1  0
  5  8  4  0
  5 23  4  0
  6 18  2  0
  7 15  4  0
  7 16  1  0
  7 27  4  0
  8 18  1  0
 10 18  1  0
 10 20  1  0
 11 15  4  0
 11 26  1  0
 13 22  4  0
 16 19  1  0
 16 20  2  0
 17 19  4  0
 17 21  4  0
 19 22  4  0
 20 28  1  0
 25 27  4  0
M  END
$$$$

 Created by Python create_sdf_string function

 28 30  0  0  0  0  0  0  0  0999 V2000
   11.4592   11.2893   18.7941 C   0  0  0  0  0  0  0  0  0  0  0  0
    3.4202    7.9009   20.3866 C   0  0  0  0  0  0  0  0  0  0  0  0
   13.5280   10.3522   19.3586 C   0  0  0  0  0  0  0  0  0  0  0  0
    9.6923    5.6468   22.7891 C   0  0  0  0  0  0  0  0  0  0  0  0
   11.7756   10.2554   20.8841 N   0  0  0  0  0  0  0  0  0  0  0  0
    8.9876   11.9370   19.8757 O   0  0  0  0  0  0  0  0  0  0  0  0
    6.0167    8.4478   21.1089 C   0  0  0  0  0  0  0  0  0  0  0  0
   11.0002   10.8890   20.0262 C   0  0  0  0  0  0  0  0  0  0  0  0
    2.1721    7.7393   20.0315 O   0  0  0  0  0  0  0  0  0  0  0  0
    9.1107   10.3880   21.3769 N   0  0  0  0  0  0  0  0  0  0  0  0
    3.9102    9.2008   20.3124 C   0  0  0  0  0  0  0  0  0  0  0  0
   12.7292   10.9960   18.4597 C   0  0  0  0  0  0  0  0  0  0  0  0
    9.3798    6.6793   23.6625 C   0  0  0  0  0  0  0  0  0  0  0  0
   14.7425   10.0739   19.0802 O   0  0  0  0  0  0  0  0  0  0  0  0
    5.1894    9.4673   20.7118 C   0  0  0  0  0  0  0  0  0  0  0  0
    7.3773    8.8224   21.4870 C   0  0  0  0  0  0  0  0  0  0  0  0
    8.4391    6.6439   21.0235 C   0  0  0  0  0  0  0  0  0  0  0  0
    9.6494   11.1353   20.4167 C   0  0  0  0  0  0  0  0  0  0  0  0
    8.1431    7.6829   21.9046 C   0  0  0  0  0  0  0  0  0  0  0  0
    7.7796   10.1314   21.5115 N   0  0  0  0  0  0  0  0  0  0  0  0
    9.2768    5.6183   21.4437 C   0  0  0  0  0  0  0  0  0  0  0  0
    8.6315    7.7322   23.1768 C   0  0  0  0  0  0  0  0  0  0  0  0
   13.0537    9.9821   20.5781 C   0  0  0  0  0  0  0  0  0  0  0  0
   10.3850    4.6575   23.2386 O   0  0  0  0  0  0  0  0  0  0  0  0
    4.2069    6.8450   20.7994 C   0  0  0  0  0  0  0  0  0  0  0  0
    3.0726   10.1043   19.8522 O   0  0  0  0  0  0  0  0  0  0  0  0
    5.5057    7.1196   21.1155 C   0  0  0  0  0  0  0  0  0  0  0  0
    7.0367   11.0229   21.9948 O   0  0  0  0  0  0  0  0  0  0  0  0
  1  8  4  0
  1 12  4  0
  2  9  1  0
  2 11  4  0
  2 25  4  0
  3 12  4  0
  3 14  1  0
  3 23  4  0
  4 13  4  0
  4 21  4  0
  4 24  1  0
  5  8  4  0
  5 23  4  0
  6 18  2  0
  7 15  4  0
  7 16  1  0
  7 27  4  0
  8 18  1  0
 10 18  1  0
 10 20  1  0
 11 15  4  0
 11 26  1  0
 13 22  4  0
 16 19  1  0
 16 20  2  0
 17 19  4  0
 17 21  4  0
 19 22  4  0
 20 28  1  0
 25 27  4  0
M  END
$$$$

 Created by Python create_sdf_string function

 28 30  0  0  0  0  0  0  0  0999 V2000
   11.4592   11.2893   18.7941 C   0  0  0  0  0  0  0  0  0  0  0  0
    3.4202    7.9009   20.3866 C   0  0  0  0  0  0  0  0  0  0  0  0
   13.5280   10.3522   19.3586 C   0  0  0  0  0  0  0  0  0  0  0  0
    9.6923    5.6468   22.7891 C   0  0  0  0  0  0  0  0  0  0  0  0
   11.7756   10.2554   20.8841 N   0  0  0  0  0  0  0  0  0  0  0  0
    8.9876   11.9370   19.8757 O   0  0  0  0  0  0  0  0  0  0  0  0
    6.0167    8.4478   21.1089 C   0  0  0  0  0  0  0  0  0  0  0  0
   11.0002   10.8890   20.0262 C   0  0  0  0  0  0  0  0  0  0  0  0
    2.1721    7.7393   20.0315 O   0  0  0  0  0  0  0  0  0  0  0  0
    9.1107   10.3880   21.3769 N   0  0  0  0  0  0  0  0  0  0  0  0
    3.9102    9.2008   20.3124 C   0  0  0  0  0  0  0  0  0  0  0  0
   12.7292   10.9960   18.4597 C   0  0  0  0  0  0  0  0  0  0  0  0
    9.3798    6.6793   23.6625 C   0  0  0  0  0  0  0  0  0  0  0  0
   14.7425   10.0739   19.0802 O   0  0  0  0  0  0  0  0  0  0  0  0
    5.1894    9.4673   20.7118 C   0  0  0  0  0  0  0  0  0  0  0  0
    7.3773    8.8224   21.4870 C   0  0  0  0  0  0  0  0  0  0  0  0
    8.4391    6.6439   21.0235 C   0  0  0  0  0  0  0  0  0  0  0  0
    9.6494   11.1353   20.4167 C   0  0  0  0  0  0  0  0  0  0  0  0
    8.1431    7.6829   21.9046 C   0  0  0  0  0  0  0  0  0  0  0  0
    7.7796   10.1314   21.5115 N   0  0  0  0  0  0  0  0  0  0  0  0
    9.2768    5.6183   21.4437 C   0  0  0  0  0  0  0  0  0  0  0  0
    8.6315    7.7322   23.1768 C   0  0  0  0  0  0  0  0  0  0  0  0
   13.0537    9.9821   20.5781 C   0  0  0  0  0  0  0  0  0  0  0  0
   10.3850    4.6575   23.2386 O   0  0  0  0  0  0  0  0  0  0  0  0
    4.2069    6.8450   20.7994 C   0  0  0  0  0  0  0  0  0  0  0  0
    3.0726   10.1043   19.8522 O   0  0  0  0  0  0  0  0  0  0  0  0
    5.5057    7.1196   21.1155 C   0  0  0  0  0  0  0  0  0  0  0  0
    7.0367   11.0229   21.9948 O   0  0  0  0  0  0  0  0  0  0  0  0
  1  8  4  0
  1 12  4  0
  2  9  1  0
  2 11  4  0
  2 25  4  0
  3 12  4  0
  3 14  1  0
  3 23  4  0
  4 13  4  0
  4 21  4  0
  4 24  1  0
  5  8  4  0
  5 23  4  0
  6 18  2  0
  7 15  4  0
  7 16  1  0
  7 27  4  0
  8 18  1  0
 10 18  1  0
 10 20  1  0
 11 15  4  0
 11 26  1  0
 13 22  4  0
 16 19  1  0
 16 20  2  0
 17 19  4  0
 17 21  4  0
 19 22  4  0
 20 28  1  0
 25 27  4  0
M  END
$$$$

 Created by Python create_sdf_string function

 28 30  0  0  0  0  0  0  0  0999 V2000
   11.4592   11.2893   18.7941 C   0  0  0  0  0  0  0  0  0  0  0  0
    3.4202    7.9009   20.3866 C   0  0  0  0  0  0  0  0  0  0  0  0
   13.5280   10.3522   19.3586 C   0  0  0  0  0  0  0  0  0  0  0  0
    9.6923    5.6468   22.7891 C   0  0  0  0  0  0  0  0  0  0  0  0
   11.7756   10.2554   20.8841 N   0  0  0  0  0  0  0  0  0  0  0  0
    8.9876   11.9370   19.8757 O   0  0  0  0  0  0  0  0  0  0  0  0
    6.0167    8.4478   21.1089 C   0  0  0  0  0  0  0  0  0  0  0  0
   11.0002   10.8890   20.0262 C   0  0  0  0  0  0  0  0  0  0  0  0
    2.1721    7.7393   20.0315 O   0  0  0  0  0  0  0  0  0  0  0  0
    9.1107   10.3880   21.3769 N   0  0  0  0  0  0  0  0  0  0  0  0
    3.9102    9.2008   20.3124 C   0  0  0  0  0  0  0  0  0  0  0  0
   12.7292   10.9960   18.4597 C   0  0  0  0  0  0  0  0  0  0  0  0
    9.3798    6.6793   23.6625 C   0  0  0  0  0  0  0  0  0  0  0  0
   14.7425   10.0739   19.0802 O   0  0  0  0  0  0  0  0  0  0  0  0
    5.1894    9.4673   20.7118 C   0  0  0  0  0  0  0  0  0  0  0  0
    7.3773    8.8224   21.4870 C   0  0  0  0  0  0  0  0  0  0  0  0
    8.4391    6.6439   21.0235 C   0  0  0  0  0  0  0  0  0  0  0  0
    9.6494   11.1353   20.4167 C   0  0  0  0  0  0  0  0  0  0  0  0
    8.1431    7.6829   21.9046 C   0  0  0  0  0  0  0  0  0  0  0  0
    7.7796   10.1314   21.5115 N   0  0  0  0  0  0  0  0  0  0  0  0
    9.2768    5.6183   21.4437 C   0  0  0  0  0  0  0  0  0  0  0  0
    8.6315    7.7322   23.1768 C   0  0  0  0  0  0  0  0  0  0  0  0
   13.0537    9.9821   20.5781 C   0  0  0  0  0  0  0  0  0  0  0  0
   10.3850    4.6575   23.2386 O   0  0  0  0  0  0  0  0  0  0  0  0
    4.2069    6.8450   20.7994 C   0  0  0  0  0  0  0  0  0  0  0  0
    3.0726   10.1043   19.8522 O   0  0  0  0  0  0  0  0  0  0  0  0
    5.5057    7.1196   21.1155 C   0  0  0  0  0  0  0  0  0  0  0  0
    7.0367   11.0229   21.9948 O   0  0  0  0  0  0  0  0  0  0  0  0
  1  8  4  0
  1 12  4  0
  2  9  1  0
  2 11  4  0
  2 25  4  0
  3 12  4  0
  3 14  1  0
  3 23  4  0
  4 13  4  0
  4 21  4  0
  4 24  1  0
  5  8  4  0
  5 23  4  0
  6 18  2  0
  7 15  4  0
  7 16  1  0
  7 27  4  0
  8 18  1  0
 10 18  1  0
 10 20  1  0
 11 15  4  0
 11 26  1  0
 13 22  4  0
 16 19  1  0
 16 20  2  0
 17 19  4  0
 17 21  4  0
 19 22  4  0
 20 28  1  0
 25 27  4  0
M  END
$$$$

 Created by Python create_sdf_string function

 28 30  0  0  0  0  0  0  0  0999 V2000
   11.4592   11.2893   18.7941 C   0  0  0  0  0  0  0  0  0  0  0  0
    3.4202    7.9009   20.3866 C   0  0  0  0  0  0  0  0  0  0  0  0
   13.5280   10.3522   19.3586 C   0  0  0  0  0  0  0  0  0  0  0  0
    9.6923    5.6468   22.7891 C   0  0  0  0  0  0  0  0  0  0  0  0
   11.7756   10.2554   20.8841 N   0  0  0  0  0  0  0  0  0  0  0  0
    8.9876   11.9370   19.8757 O   0  0  0  0  0  0  0  0  0  0  0  0
    6.0167    8.4478   21.1089 C   0  0  0  0  0  0  0  0  0  0  0  0
   11.0002   10.8890   20.0262 C   0  0  0  0  0  0  0  0  0  0  0  0
    2.1721    7.7393   20.0315 O   0  0  0  0  0  0  0  0  0  0  0  0
    9.1107   10.3880   21.3769 N   0  0  0  0  0  0  0  0  0  0  0  0
    3.9102    9.2008   20.3124 C   0  0  0  0  0  0  0  0  0  0  0  0
   12.7292   10.9960   18.4597 C   0  0  0  0  0  0  0  0  0  0  0  0
    9.3798    6.6793   23.6625 C   0  0  0  0  0  0  0  0  0  0  0  0
   14.7425   10.0739   19.0802 O   0  0  0  0  0  0  0  0  0  0  0  0
    5.1894    9.4673   20.7118 C   0  0  0  0  0  0  0  0  0  0  0  0
    7.3773    8.8224   21.4870 C   0  0  0  0  0  0  0  0  0  0  0  0
    8.4391    6.6439   21.0235 C   0  0  0  0  0  0  0  0  0  0  0  0
    9.6494   11.1353   20.4167 C   0  0  0  0  0  0  0  0  0  0  0  0
    8.1431    7.6829   21.9046 C   0  0  0  0  0  0  0  0  0  0  0  0
    7.7796   10.1314   21.5115 N   0  0  0  0  0  0  0  0  0  0  0  0
    9.2768    5.6183   21.4437 C   0  0  0  0  0  0  0  0  0  0  0  0
    8.6315    7.7322   23.1768 C   0  0  0  0  0  0  0  0  0  0  0  0
   13.0537    9.9821   20.5781 C   0  0  0  0  0  0  0  0  0  0  0  0
   10.3850    4.6575   23.2386 O   0  0  0  0  0  0  0  0  0  0  0  0
    4.2069    6.8450   20.7994 C   0  0  0  0  0  0  0  0  0  0  0  0
    3.0726   10.1043   19.8522 O   0  0  0  0  0  0  0  0  0  0  0  0
    5.5057    7.1196   21.1155 C   0  0  0  0  0  0  0  0  0  0  0  0
    7.0367   11.0229   21.9948 O   0  0  0  0  0  0  0  0  0  0  0  0
  1  8  4  0
  1 12  4  0
  2  9  1  0
  2 11  4  0
  2 25  4  0
  3 12  4  0
  3 14  1  0
  3 23  4  0
  4 13  4  0
  4 21  4  0
  4 24  1  0
  5  8  4  0
  5 23  4  0
  6 18  2  0
  7 15  4  0
  7 16  1  0
  7 27  4  0
  8 18  1  0
 10 18  1  0
 10 20  1  0
 11 15  4  0
 11 26  1  0
 13 22  4  0
 16 19  1  0
 16 20  2  0
 17 19  4  0
 17 21  4  0
 19 22  4  0
 20 28  1  0
 25 27  4  0
M  END
$$$$

 Created by Python create_sdf_string function

 28 30  0  0  0  0  0  0  0  0999 V2000
   11.4592   11.2893   18.7941 C   0  0  0  0  0  0  0  0  0  0  0  0
    3.4202    7.9009   20.3866 C   0  0  0  0  0  0  0  0  0  0  0  0
   13.5280   10.3522   19.3586 C   0  0  0  0  0  0  0  0  0  0  0  0
    9.6923    5.6468   22.7891 C   0  0  0  0  0  0  0  0  0  0  0  0
   11.7756   10.2554   20.8841 N   0  0  0  0  0  0  0  0  0  0  0  0
    8.9876   11.9370   19.8757 O   0  0  0  0  0  0  0  0  0  0  0  0
    6.0167    8.4478   21.1089 C   0  0  0  0  0  0  0  0  0  0  0  0
   11.0002   10.8890   20.0262 C   0  0  0  0  0  0  0  0  0  0  0  0
    2.1721    7.7393   20.0315 O   0  0  0  0  0  0  0  0  0  0  0  0
    9.1107   10.3880   21.3769 N   0  0  0  0  0  0  0  0  0  0  0  0
    3.9102    9.2008   20.3124 C   0  0  0  0  0  0  0  0  0  0  0  0
   12.7292   10.9960   18.4597 C   0  0  0  0  0  0  0  0  0  0  0  0
    9.3798    6.6793   23.6625 C   0  0  0  0  0  0  0  0  0  0  0  0
   14.7425   10.0739   19.0802 O   0  0  0  0  0  0  0  0  0  0  0  0
    5.1894    9.4673   20.7118 C   0  0  0  0  0  0  0  0  0  0  0  0
    7.3773    8.8224   21.4870 C   0  0  0  0  0  0  0  0  0  0  0  0
    8.4391    6.6439   21.0235 C   0  0  0  0  0  0  0  0  0  0  0  0
    9.6494   11.1353   20.4167 C   0  0  0  0  0  0  0  0  0  0  0  0
    8.1431    7.6829   21.9046 C   0  0  0  0  0  0  0  0  0  0  0  0
    7.7796   10.1314   21.5115 N   0  0  0  0  0  0  0  0  0  0  0  0
    9.2768    5.6183   21.4437 C   0  0  0  0  0  0  0  0  0  0  0  0
    8.6315    7.7322   23.1768 C   0  0  0  0  0  0  0  0  0  0  0  0
   13.0537    9.9821   20.5781 C   0  0  0  0  0  0  0  0  0  0  0  0
   10.3850    4.6575   23.2386 O   0  0  0  0  0  0  0  0  0  0  0  0
    4.2069    6.8450   20.7994 C   0  0  0  0  0  0  0  0  0  0  0  0
    3.0726   10.1043   19.8522 O   0  0  0  0  0  0  0  0  0  0  0  0
    5.5057    7.1196   21.1155 C   0  0  0  0  0  0  0  0  0  0  0  0
    7.0367   11.0229   21.9948 O   0  0  0  0  0  0  0  0  0  0  0  0
  1  8  4  0
  1 12  4  0
  2  9  1  0
  2 11  4  0
  2 25  4  0
  3 12  4  0
  3 14  1  0
  3 23  4  0
  4 13  4  0
  4 21  4  0
  4 24  1  0
  5  8  4  0
  5 23  4  0
  6 18  2  0
  7 15  4  0
  7 16  1  0
  7 27  4  0
  8 18  1  0
 10 18  1  0
 10 20  1  0
 11 15  4  0
 11 26  1  0
 13 22  4  0
 16 19  1  0
 16 20  2  0
 17 19  4  0
 17 21  4  0
 19 22  4  0
 20 28  1  0
 25 27  4  0
M  END
$$$$

 Created by Python create_sdf_string function

 28 30  0  0  0  0  0  0  0  0999 V2000
   11.4592   11.2893   18.7941 C   0  0  0  0  0  0  0  0  0  0  0  0
    3.4202    7.9009   20.3866 C   0  0  0  0  0  0  0  0  0  0  0  0
   13.5280   10.3522   19.3586 C   0  0  0  0  0  0  0  0  0  0  0  0
    9.6923    5.6468   22.7891 C   0  0  0  0  0  0  0  0  0  0  0  0
   11.7756   10.2554   20.8841 N   0  0  0  0  0  0  0  0  0  0  0  0
    8.9876   11.9370   19.8757 O   0  0  0  0  0  0  0  0  0  0  0  0
    6.0167    8.4478   21.1089 C   0  0  0  0  0  0  0  0  0  0  0  0
   11.0002   10.8890   20.0262 C   0  0  0  0  0  0  0  0  0  0  0  0
    2.1721    7.7393   20.0315 O   0  0  0  0  0  0  0  0  0  0  0  0
    9.1107   10.3880   21.3769 N   0  0  0  0  0  0  0  0  0  0  0  0
    3.9102    9.2008   20.3124 C   0  0  0  0  0  0  0  0  0  0  0  0
   12.7292   10.9960   18.4597 C   0  0  0  0  0  0  0  0  0  0  0  0
    9.3798    6.6793   23.6625 C   0  0  0  0  0  0  0  0  0  0  0  0
   14.7425   10.0739   19.0802 O   0  0  0  0  0  0  0  0  0  0  0  0
    5.1894    9.4673   20.7118 C   0  0  0  0  0  0  0  0  0  0  0  0
    7.3773    8.8224   21.4870 C   0  0  0  0  0  0  0  0  0  0  0  0
    8.4391    6.6439   21.0235 C   0  0  0  0  0  0  0  0  0  0  0  0
    9.6494   11.1353   20.4167 C   0  0  0  0  0  0  0  0  0  0  0  0
    8.1431    7.6829   21.9046 C   0  0  0  0  0  0  0  0  0  0  0  0
    7.7796   10.1314   21.5115 N   0  0  0  0  0  0  0  0  0  0  0  0
    9.2768    5.6183   21.4437 C   0  0  0  0  0  0  0  0  0  0  0  0
    8.6315    7.7322   23.1768 C   0  0  0  0  0  0  0  0  0  0  0  0
   13.0537    9.9821   20.5781 C   0  0  0  0  0  0  0  0  0  0  0  0
   10.3850    4.6575   23.2386 O   0  0  0  0  0  0  0  0  0  0  0  0
    4.2069    6.8450   20.7994 C   0  0  0  0  0  0  0  0  0  0  0  0
    3.0726   10.1043   19.8522 O   0  0  0  0  0  0  0  0  0  0  0  0
    5.5057    7.1196   21.1155 C   0  0  0  0  0  0  0  0  0  0  0  0
    7.0367   11.0229   21.9948 O   0  0  0  0  0  0  0  0  0  0  0  0
  1  8  4  0
  1 12  4  0
  2  9  1  0
  2 11  4  0
  2 25  4  0
  3 12  4  0
  3 14  1  0
  3 23  4  0
  4 13  4  0
  4 21  4  0
  4 24  1  0
  5  8  4  0
  5 23  4  0
  6 18  2  0
  7 15  4  0
  7 16  1  0
  7 27  4  0
  8 18  1  0
 10 18  1  0
 10 20  1  0
 11 15  4  0
 11 26  1  0
 13 22  4  0
 16 19  1  0
 16 20  2  0
 17 19  4  0
 17 21  4  0
 19 22  4  0
 20 28  1  0
 25 27  4  0
M  END
$$$$

 Created by Python create_sdf_string function

 28 30  0  0  0  0  0  0  0  0999 V2000
   11.4592   11.2893   18.7941 C   0  0  0  0  0  0  0  0  0  0  0  0
    3.4202    7.9009   20.3866 C   0  0  0  0  0  0  0  0  0  0  0  0
   13.5280   10.3522   19.3586 C   0  0  0  0  0  0  0  0  0  0  0  0
    9.6923    5.6468   22.7891 C   0  0  0  0  0  0  0  0  0  0  0  0
   11.7756   10.2554   20.8841 N   0  0  0  0  0  0  0  0  0  0  0  0
    8.9876   11.9370   19.8757 O   0  0  0  0  0  0  0  0  0  0  0  0
    6.0167    8.4478   21.1089 C   0  0  0  0  0  0  0  0  0  0  0  0
   11.0002   10.8890   20.0262 C   0  0  0  0  0  0  0  0  0  0  0  0
    2.1721    7.7393   20.0315 O   0  0  0  0  0  0  0  0  0  0  0  0
    9.1107   10.3880   21.3769 N   0  0  0  0  0  0  0  0  0  0  0  0
    3.9102    9.2008   20.3124 C   0  0  0  0  0  0  0  0  0  0  0  0
   12.7292   10.9960   18.4597 C   0  0  0  0  0  0  0  0  0  0  0  0
    9.3798    6.6793   23.6625 C   0  0  0  0  0  0  0  0  0  0  0  0
   14.7425   10.0739   19.0802 O   0  0  0  0  0  0  0  0  0  0  0  0
    5.1894    9.4673   20.7118 C   0  0  0  0  0  0  0  0  0  0  0  0
    7.3773    8.8224   21.4870 C   0  0  0  0  0  0  0  0  0  0  0  0
    8.4391    6.6439   21.0235 C   0  0  0  0  0  0  0  0  0  0  0  0
    9.6494   11.1353   20.4167 C   0  0  0  0  0  0  0  0  0  0  0  0
    8.1431    7.6829   21.9046 C   0  0  0  0  0  0  0  0  0  0  0  0
    7.7796   10.1314   21.5115 N   0  0  0  0  0  0  0  0  0  0  0  0
    9.2768    5.6183   21.4437 C   0  0  0  0  0  0  0  0  0  0  0  0
    8.6315    7.7322   23.1768 C   0  0  0  0  0  0  0  0  0  0  0  0
   13.0537    9.9821   20.5781 C   0  0  0  0  0  0  0  0  0  0  0  0
   10.3850    4.6575   23.2386 O   0  0  0  0  0  0  0  0  0  0  0  0
    4.2069    6.8450   20.7994 C   0  0  0  0  0  0  0  0  0  0  0  0
    3.0726   10.1043   19.8522 O   0  0  0  0  0  0  0  0  0  0  0  0
    5.5057    7.1196   21.1155 C   0  0  0  0  0  0  0  0  0  0  0  0
    7.0367   11.0229   21.9948 O   0  0  0  0  0  0  0  0  0  0  0  0
  1  8  4  0
  1 12  4  0
  2  9  1  0
  2 11  4  0
  2 25  4  0
  3 12  4  0
  3 14  1  0
  3 23  4  0
  4 13  4  0
  4 21  4  0
  4 24  1  0
  5  8  4  0
  5 23  4  0
  6 18  2  0
  7 15  4  0
  7 16  1  0
  7 27  4  0
  8 18  1  0
 10 18  1  0
 10 20  1  0
 11 15  4  0
 11 26  1  0
 13 22  4  0
 16 19  1  0
 16 20  2  0
 17 19  4  0
 17 21  4  0
 19 22  4  0
 20 28  1  0
 25 27  4  0
M  END
$$$$

 Created by Python create_sdf_string function

 28 30  0  0  0  0  0  0  0  0999 V2000
   11.4592   11.2893   18.7941 C   0  0  0  0  0  0  0  0  0  0  0  0
    3.4202    7.9009   20.3866 C   0  0  0  0  0  0  0  0  0  0  0  0
   13.5280   10.3522   19.3586 C   0  0  0  0  0  0  0  0  0  0  0  0
    9.6923    5.6468   22.7891 C   0  0  0  0  0  0  0  0  0  0  0  0
   11.7756   10.2554   20.8841 N   0  0  0  0  0  0  0  0  0  0  0  0
    8.9876   11.9370   19.8757 O   0  0  0  0  0  0  0  0  0  0  0  0
    6.0167    8.4478   21.1089 C   0  0  0  0  0  0  0  0  0  0  0  0
   11.0002   10.8890   20.0262 C   0  0  0  0  0  0  0  0  0  0  0  0
    2.1721    7.7393   20.0315 O   0  0  0  0  0  0  0  0  0  0  0  0
    9.1107   10.3880   21.3769 N   0  0  0  0  0  0  0  0  0  0  0  0
    3.9102    9.2008   20.3124 C   0  0  0  0  0  0  0  0  0  0  0  0
   12.7292   10.9960   18.4597 C   0  0  0  0  0  0  0  0  0  0  0  0
    9.3798    6.6793   23.6625 C   0  0  0  0  0  0  0  0  0  0  0  0
   14.7425   10.0739   19.0802 O   0  0  0  0  0  0  0  0  0  0  0  0
    5.1894    9.4673   20.7118 C   0  0  0  0  0  0  0  0  0  0  0  0
    7.3773    8.8224   21.4870 C   0  0  0  0  0  0  0  0  0  0  0  0
    8.4391    6.6439   21.0235 C   0  0  0  0  0  0  0  0  0  0  0  0
    9.6494   11.1353   20.4167 C   0  0  0  0  0  0  0  0  0  0  0  0
    8.1431    7.6829   21.9046 C   0  0  0  0  0  0  0  0  0  0  0  0
    7.7796   10.1314   21.5115 N   0  0  0  0  0  0  0  0  0  0  0  0
    9.2768    5.6183   21.4437 C   0  0  0  0  0  0  0  0  0  0  0  0
    8.6315    7.7322   23.1768 C   0  0  0  0  0  0  0  0  0  0  0  0
   13.0537    9.9821   20.5781 C   0  0  0  0  0  0  0  0  0  0  0  0
   10.3850    4.6575   23.2386 O   0  0  0  0  0  0  0  0  0  0  0  0
    4.2069    6.8450   20.7994 C   0  0  0  0  0  0  0  0  0  0  0  0
    3.0726   10.1043   19.8522 O   0  0  0  0  0  0  0  0  0  0  0  0
    5.5057    7.1196   21.1155 C   0  0  0  0  0  0  0  0  0  0  0  0
    7.0367   11.0229   21.9948 O   0  0  0  0  0  0  0  0  0  0  0  0
  1  8  4  0
  1 12  4  0
  2  9  1  0
  2 11  4  0
  2 25  4  0
  3 12  4  0
  3 14  1  0
  3 23  4  0
  4 13  4  0
  4 21  4  0
  4 24  1  0
  5  8  4  0
  5 23  4  0
  6 18  2  0
  7 15  4  0
  7 16  1  0
  7 27  4  0
  8 18  1  0
 10 18  1  0
 10 20  1  0
 11 15  4  0
 11 26  1  0
 13 22  4  0
 16 19  1  0
 16 20  2  0
 17 19  4  0
 17 21  4  0
 19 22  4  0
 20 28  1  0
 25 27  4  0
M  END
$$$$

 Created by Python create_sdf_string function

 28 30  0  0  0  0  0  0  0  0999 V2000
   11.4592   11.2893   18.7941 C   0  0  0  0  0  0  0  0  0  0  0  0
    3.4202    7.9009   20.3866 C   0  0  0  0  0  0  0  0  0  0  0  0
   13.5280   10.3522   19.3586 C   0  0  0  0  0  0  0  0  0  0  0  0
    9.6923    5.6468   22.7891 C   0  0  0  0  0  0  0  0  0  0  0  0
   11.7756   10.2554   20.8841 N   0  0  0  0  0  0  0  0  0  0  0  0
    8.9876   11.9370   19.8757 O   0  0  0  0  0  0  0  0  0  0  0  0
    6.0167    8.4478   21.1089 C   0  0  0  0  0  0  0  0  0  0  0  0
   11.0002   10.8890   20.0262 C   0  0  0  0  0  0  0  0  0  0  0  0
    2.1721    7.7393   20.0315 O   0  0  0  0  0  0  0  0  0  0  0  0
    9.1107   10.3880   21.3769 N   0  0  0  0  0  0  0  0  0  0  0  0
    3.9102    9.2008   20.3124 C   0  0  0  0  0  0  0  0  0  0  0  0
   12.7292   10.9960   18.4597 C   0  0  0  0  0  0  0  0  0  0  0  0
    9.3798    6.6793   23.6625 C   0  0  0  0  0  0  0  0  0  0  0  0
   14.7425   10.0739   19.0802 O   0  0  0  0  0  0  0  0  0  0  0  0
    5.1894    9.4673   20.7118 C   0  0  0  0  0  0  0  0  0  0  0  0
    7.3773    8.8224   21.4870 C   0  0  0  0  0  0  0  0  0  0  0  0
    8.4391    6.6439   21.0235 C   0  0  0  0  0  0  0  0  0  0  0  0
    9.6494   11.1353   20.4167 C   0  0  0  0  0  0  0  0  0  0  0  0
    8.1431    7.6829   21.9046 C   0  0  0  0  0  0  0  0  0  0  0  0
    7.7796   10.1314   21.5115 N   0  0  0  0  0  0  0  0  0  0  0  0
    9.2768    5.6183   21.4437 C   0  0  0  0  0  0  0  0  0  0  0  0
    8.6315    7.7322   23.1768 C   0  0  0  0  0  0  0  0  0  0  0  0
   13.0537    9.9821   20.5781 C   0  0  0  0  0  0  0  0  0  0  0  0
   10.3850    4.6575   23.2386 O   0  0  0  0  0  0  0  0  0  0  0  0
    4.2069    6.8450   20.7994 C   0  0  0  0  0  0  0  0  0  0  0  0
    3.0726   10.1043   19.8522 O   0  0  0  0  0  0  0  0  0  0  0  0
    5.5057    7.1196   21.1155 C   0  0  0  0  0  0  0  0  0  0  0  0
    7.0367   11.0229   21.9948 O   0  0  0  0  0  0  0  0  0  0  0  0
  1  8  4  0
  1 12  4  0
  2  9  1  0
  2 11  4  0
  2 25  4  0
  3 12  4  0
  3 14  1  0
  3 23  4  0
  4 13  4  0
  4 21  4  0
  4 24  1  0
  5  8  4  0
  5 23  4  0
  6 18  2  0
  7 15  4  0
  7 16  1  0
  7 27  4  0
  8 18  1  0
 10 18  1  0
 10 20  1  0
 11 15  4  0
 11 26  1  0
 13 22  4  0
 16 19  1  0
 16 20  2  0
 17 19  4  0
 17 21  4  0
 19 22  4  0
 20 28  1  0
 25 27  4  0
M  END
$$$$

 Created by Python create_sdf_string function

 28 30  0  0  0  0  0  0  0  0999 V2000
   11.4592   11.2893   18.7941 C   0  0  0  0  0  0  0  0  0  0  0  0
    3.4202    7.9009   20.3866 C   0  0  0  0  0  0  0  0  0  0  0  0
   13.5280   10.3522   19.3586 C   0  0  0  0  0  0  0  0  0  0  0  0
    9.6923    5.6468   22.7891 C   0  0  0  0  0  0  0  0  0  0  0  0
   11.7756   10.2554   20.8841 N   0  0  0  0  0  0  0  0  0  0  0  0
    8.9876   11.9370   19.8757 O   0  0  0  0  0  0  0  0  0  0  0  0
    6.0167    8.4478   21.1089 C   0  0  0  0  0  0  0  0  0  0  0  0
   11.0002   10.8890   20.0262 C   0  0  0  0  0  0  0  0  0  0  0  0
    2.1721    7.7393   20.0315 O   0  0  0  0  0  0  0  0  0  0  0  0
    9.1107   10.3880   21.3769 N   0  0  0  0  0  0  0  0  0  0  0  0
    3.9102    9.2008   20.3124 C   0  0  0  0  0  0  0  0  0  0  0  0
   12.7292   10.9960   18.4597 C   0  0  0  0  0  0  0  0  0  0  0  0
    9.3798    6.6793   23.6625 C   0  0  0  0  0  0  0  0  0  0  0  0
   14.7425   10.0739   19.0802 O   0  0  0  0  0  0  0  0  0  0  0  0
    5.1894    9.4673   20.7118 C   0  0  0  0  0  0  0  0  0  0  0  0
    7.3773    8.8224   21.4870 C   0  0  0  0  0  0  0  0  0  0  0  0
    8.4391    6.6439   21.0235 C   0  0  0  0  0  0  0  0  0  0  0  0
    9.6494   11.1353   20.4167 C   0  0  0  0  0  0  0  0  0  0  0  0
    8.1431    7.6829   21.9046 C   0  0  0  0  0  0  0  0  0  0  0  0
    7.7796   10.1314   21.5115 N   0  0  0  0  0  0  0  0  0  0  0  0
    9.2768    5.6183   21.4437 C   0  0  0  0  0  0  0  0  0  0  0  0
    8.6315    7.7322   23.1768 C   0  0  0  0  0  0  0  0  0  0  0  0
   13.0537    9.9821   20.5781 C   0  0  0  0  0  0  0  0  0  0  0  0
   10.3850    4.6575   23.2386 O   0  0  0  0  0  0  0  0  0  0  0  0
    4.2069    6.8450   20.7994 C   0  0  0  0  0  0  0  0  0  0  0  0
    3.0726   10.1043   19.8522 O   0  0  0  0  0  0  0  0  0  0  0  0
    5.5057    7.1196   21.1155 C   0  0  0  0  0  0  0  0  0  0  0  0
    7.0367   11.0229   21.9948 O   0  0  0  0  0  0  0  0  0  0  0  0
  1  8  4  0
  1 12  4  0
  2  9  1  0
  2 11  4  0
  2 25  4  0
  3 12  4  0
  3 14  1  0
  3 23  4  0
  4 13  4  0
  4 21  4  0
  4 24  1  0
  5  8  4  0
  5 23  4  0
  6 18  2  0
  7 15  4  0
  7 16  1  0
  7 27  4  0
  8 18  1  0
 10 18  1  0
 10 20  1  0
 11 15  4  0
 11 26  1  0
 13 22  4  0
 16 19  1  0
 16 20  2  0
 17 19  4  0
 17 21  4  0
 19 22  4  0
 20 28  1  0
 25 27  4  0
M  END
$$$$

 Created by Python create_sdf_string function

 28 30  0  0  0  0  0  0  0  0999 V2000
   11.4592   11.2893   18.7941 C   0  0  0  0  0  0  0  0  0  0  0  0
    3.4202    7.9009   20.3866 C   0  0  0  0  0  0  0  0  0  0  0  0
   13.5280   10.3522   19.3586 C   0  0  0  0  0  0  0  0  0  0  0  0
    9.6923    5.6468   22.7891 C   0  0  0  0  0  0  0  0  0  0  0  0
   11.7756   10.2554   20.8841 N   0  0  0  0  0  0  0  0  0  0  0  0
    8.9876   11.9370   19.8757 O   0  0  0  0  0  0  0  0  0  0  0  0
    6.0167    8.4478   21.1089 C   0  0  0  0  0  0  0  0  0  0  0  0
   11.0002   10.8890   20.0262 C   0  0  0  0  0  0  0  0  0  0  0  0
    2.1721    7.7393   20.0315 O   0  0  0  0  0  0  0  0  0  0  0  0
    9.1107   10.3880   21.3769 N   0  0  0  0  0  0  0  0  0  0  0  0
    3.9102    9.2008   20.3124 C   0  0  0  0  0  0  0  0  0  0  0  0
   12.7292   10.9960   18.4597 C   0  0  0  0  0  0  0  0  0  0  0  0
    9.3798    6.6793   23.6625 C   0  0  0  0  0  0  0  0  0  0  0  0
   14.7425   10.0739   19.0802 O   0  0  0  0  0  0  0  0  0  0  0  0
    5.1894    9.4673   20.7118 C   0  0  0  0  0  0  0  0  0  0  0  0
    7.3773    8.8224   21.4870 C   0  0  0  0  0  0  0  0  0  0  0  0
    8.4391    6.6439   21.0235 C   0  0  0  0  0  0  0  0  0  0  0  0
    9.6494   11.1353   20.4167 C   0  0  0  0  0  0  0  0  0  0  0  0
    8.1431    7.6829   21.9046 C   0  0  0  0  0  0  0  0  0  0  0  0
    7.7796   10.1314   21.5115 N   0  0  0  0  0  0  0  0  0  0  0  0
    9.2768    5.6183   21.4437 C   0  0  0  0  0  0  0  0  0  0  0  0
    8.6315    7.7322   23.1768 C   0  0  0  0  0  0  0  0  0  0  0  0
   13.0537    9.9821   20.5781 C   0  0  0  0  0  0  0  0  0  0  0  0
   10.3850    4.6575   23.2386 O   0  0  0  0  0  0  0  0  0  0  0  0
    4.2069    6.8450   20.7994 C   0  0  0  0  0  0  0  0  0  0  0  0
    3.0726   10.1043   19.8522 O   0  0  0  0  0  0  0  0  0  0  0  0
    5.5057    7.1196   21.1155 C   0  0  0  0  0  0  0  0  0  0  0  0
    7.0367   11.0229   21.9948 O   0  0  0  0  0  0  0  0  0  0  0  0
  1  8  4  0
  1 12  4  0
  2  9  1  0
  2 11  4  0
  2 25  4  0
  3 12  4  0
  3 14  1  0
  3 23  4  0
  4 13  4  0
  4 21  4  0
  4 24  1  0
  5  8  4  0
  5 23  4  0
  6 18  2  0
  7 15  4  0
  7 16  1  0
  7 27  4  0
  8 18  1  0
 10 18  1  0
 10 20  1  0
 11 15  4  0
 11 26  1  0
 13 22  4  0
 16 19  1  0
 16 20  2  0
 17 19  4  0
 17 21  4  0
 19 22  4  0
 20 28  1  0
 25 27  4  0
M  END
$$$$

 Created by Python create_sdf_string function

 28 30  0  0  0  0  0  0  0  0999 V2000
   11.4592   11.2893   18.7941 C   0  0  0  0  0  0  0  0  0  0  0  0
    3.4202    7.9009   20.3866 C   0  0  0  0  0  0  0  0  0  0  0  0
   13.5280   10.3522   19.3586 C   0  0  0  0  0  0  0  0  0  0  0  0
    9.6923    5.6468   22.7891 C   0  0  0  0  0  0  0  0  0  0  0  0
   11.7756   10.2554   20.8841 N   0  0  0  0  0  0  0  0  0  0  0  0
    8.9876   11.9370   19.8757 O   0  0  0  0  0  0  0  0  0  0  0  0
    6.0167    8.4478   21.1089 C   0  0  0  0  0  0  0  0  0  0  0  0
   11.0002   10.8890   20.0262 C   0  0  0  0  0  0  0  0  0  0  0  0
    2.1721    7.7393   20.0315 O   0  0  0  0  0  0  0  0  0  0  0  0
    9.1107   10.3880   21.3769 N   0  0  0  0  0  0  0  0  0  0  0  0
    3.9102    9.2008   20.3124 C   0  0  0  0  0  0  0  0  0  0  0  0
   12.7292   10.9960   18.4597 C   0  0  0  0  0  0  0  0  0  0  0  0
    9.3798    6.6793   23.6625 C   0  0  0  0  0  0  0  0  0  0  0  0
   14.7425   10.0739   19.0802 O   0  0  0  0  0  0  0  0  0  0  0  0
    5.1894    9.4673   20.7118 C   0  0  0  0  0  0  0  0  0  0  0  0
    7.3773    8.8224   21.4870 C   0  0  0  0  0  0  0  0  0  0  0  0
    8.4391    6.6439   21.0235 C   0  0  0  0  0  0  0  0  0  0  0  0
    9.6494   11.1353   20.4167 C   0  0  0  0  0  0  0  0  0  0  0  0
    8.1431    7.6829   21.9046 C   0  0  0  0  0  0  0  0  0  0  0  0
    7.7796   10.1314   21.5115 N   0  0  0  0  0  0  0  0  0  0  0  0
    9.2768    5.6183   21.4437 C   0  0  0  0  0  0  0  0  0  0  0  0
    8.6315    7.7322   23.1768 C   0  0  0  0  0  0  0  0  0  0  0  0
   13.0537    9.9821   20.5781 C   0  0  0  0  0  0  0  0  0  0  0  0
   10.3850    4.6575   23.2386 O   0  0  0  0  0  0  0  0  0  0  0  0
    4.2069    6.8450   20.7994 C   0  0  0  0  0  0  0  0  0  0  0  0
    3.0726   10.1043   19.8522 O   0  0  0  0  0  0  0  0  0  0  0  0
    5.5057    7.1196   21.1155 C   0  0  0  0  0  0  0  0  0  0  0  0
    7.0367   11.0229   21.9948 O   0  0  0  0  0  0  0  0  0  0  0  0
  1  8  4  0
  1 12  4  0
  2  9  1  0
  2 11  4  0
  2 25  4  0
  3 12  4  0
  3 14  1  0
  3 23  4  0
  4 13  4  0
  4 21  4  0
  4 24  1  0
  5  8  4  0
  5 23  4  0
  6 18  2  0
  7 15  4  0
  7 16  1  0
  7 27  4  0
  8 18  1  0
 10 18  1  0
 10 20  1  0
 11 15  4  0
 11 26  1  0
 13 22  4  0
 16 19  1  0
 16 20  2  0
 17 19  4  0
 17 21  4  0
 19 22  4  0
 20 28  1  0
 25 27  4  0
M  END
$$$$

 Created by Python create_sdf_string function

 28 30  0  0  0  0  0  0  0  0999 V2000
   11.4592   11.2893   18.7941 C   0  0  0  0  0  0  0  0  0  0  0  0
    3.4202    7.9009   20.3866 C   0  0  0  0  0  0  0  0  0  0  0  0
   13.5280   10.3522   19.3586 C   0  0  0  0  0  0  0  0  0  0  0  0
    9.6923    5.6468   22.7891 C   0  0  0  0  0  0  0  0  0  0  0  0
   11.7756   10.2554   20.8841 N   0  0  0  0  0  0  0  0  0  0  0  0
    8.9876   11.9370   19.8757 O   0  0  0  0  0  0  0  0  0  0  0  0
    6.0167    8.4478   21.1089 C   0  0  0  0  0  0  0  0  0  0  0  0
   11.0002   10.8890   20.0262 C   0  0  0  0  0  0  0  0  0  0  0  0
    2.1721    7.7393   20.0315 O   0  0  0  0  0  0  0  0  0  0  0  0
    9.1107   10.3880   21.3769 N   0  0  0  0  0  0  0  0  0  0  0  0
    3.9102    9.2008   20.3124 C   0  0  0  0  0  0  0  0  0  0  0  0
   12.7292   10.9960   18.4597 C   0  0  0  0  0  0  0  0  0  0  0  0
    9.3798    6.6793   23.6625 C   0  0  0  0  0  0  0  0  0  0  0  0
   14.7425   10.0739   19.0802 O   0  0  0  0  0  0  0  0  0  0  0  0
    5.1894    9.4673   20.7118 C   0  0  0  0  0  0  0  0  0  0  0  0
    7.3773    8.8224   21.4870 C   0  0  0  0  0  0  0  0  0  0  0  0
    8.4391    6.6439   21.0235 C   0  0  0  0  0  0  0  0  0  0  0  0
    9.6494   11.1353   20.4167 C   0  0  0  0  0  0  0  0  0  0  0  0
    8.1431    7.6829   21.9046 C   0  0  0  0  0  0  0  0  0  0  0  0
    7.7796   10.1314   21.5115 N   0  0  0  0  0  0  0  0  0  0  0  0
    9.2768    5.6183   21.4437 C   0  0  0  0  0  0  0  0  0  0  0  0
    8.6315    7.7322   23.1768 C   0  0  0  0  0  0  0  0  0  0  0  0
   13.0537    9.9821   20.5781 C   0  0  0  0  0  0  0  0  0  0  0  0
   10.3850    4.6575   23.2386 O   0  0  0  0  0  0  0  0  0  0  0  0
    4.2069    6.8450   20.7994 C   0  0  0  0  0  0  0  0  0  0  0  0
    3.0726   10.1043   19.8522 O   0  0  0  0  0  0  0  0  0  0  0  0
    5.5057    7.1196   21.1155 C   0  0  0  0  0  0  0  0  0  0  0  0
    7.0367   11.0229   21.9948 O   0  0  0  0  0  0  0  0  0  0  0  0
  1  8  4  0
  1 12  4  0
  2  9  1  0
  2 11  4  0
  2 25  4  0
  3 12  4  0
  3 14  1  0
  3 23  4  0
  4 13  4  0
  4 21  4  0
  4 24  1  0
  5  8  4  0
  5 23  4  0
  6 18  2  0
  7 15  4  0
  7 16  1  0
  7 27  4  0
  8 18  1  0
 10 18  1  0
 10 20  1  0
 11 15  4  0
 11 26  1  0
 13 22  4  0
 16 19  1  0
 16 20  2  0
 17 19  4  0
 17 21  4  0
 19 22  4  0
 20 28  1  0
 25 27  4  0
M  END
$$$$

 Created by Python create_sdf_string function

 28 30  0  0  0  0  0  0  0  0999 V2000
   11.4592   11.2893   18.7941 C   0  0  0  0  0  0  0  0  0  0  0  0
    3.4202    7.9009   20.3866 C   0  0  0  0  0  0  0  0  0  0  0  0
   13.5280   10.3522   19.3586 C   0  0  0  0  0  0  0  0  0  0  0  0
    9.6923    5.6468   22.7891 C   0  0  0  0  0  0  0  0  0  0  0  0
   11.7756   10.2554   20.8841 N   0  0  0  0  0  0  0  0  0  0  0  0
    8.9876   11.9370   19.8757 O   0  0  0  0  0  0  0  0  0  0  0  0
    6.0167    8.4478   21.1089 C   0  0  0  0  0  0  0  0  0  0  0  0
   11.0002   10.8890   20.0262 C   0  0  0  0  0  0  0  0  0  0  0  0
    2.1721    7.7393   20.0315 O   0  0  0  0  0  0  0  0  0  0  0  0
    9.1107   10.3880   21.3769 N   0  0  0  0  0  0  0  0  0  0  0  0
    3.9102    9.2008   20.3124 C   0  0  0  0  0  0  0  0  0  0  0  0
   12.7292   10.9960   18.4597 C   0  0  0  0  0  0  0  0  0  0  0  0
    9.3798    6.6793   23.6625 C   0  0  0  0  0  0  0  0  0  0  0  0
   14.7425   10.0739   19.0802 O   0  0  0  0  0  0  0  0  0  0  0  0
    5.1894    9.4673   20.7118 C   0  0  0  0  0  0  0  0  0  0  0  0
    7.3773    8.8224   21.4870 C   0  0  0  0  0  0  0  0  0  0  0  0
    8.4391    6.6439   21.0235 C   0  0  0  0  0  0  0  0  0  0  0  0
    9.6494   11.1353   20.4167 C   0  0  0  0  0  0  0  0  0  0  0  0
    8.1431    7.6829   21.9046 C   0  0  0  0  0  0  0  0  0  0  0  0
    7.7796   10.1314   21.5115 N   0  0  0  0  0  0  0  0  0  0  0  0
    9.2768    5.6183   21.4437 C   0  0  0  0  0  0  0  0  0  0  0  0
    8.6315    7.7322   23.1768 C   0  0  0  0  0  0  0  0  0  0  0  0
   13.0537    9.9821   20.5781 C   0  0  0  0  0  0  0  0  0  0  0  0
   10.3850    4.6575   23.2386 O   0  0  0  0  0  0  0  0  0  0  0  0
    4.2069    6.8450   20.7994 C   0  0  0  0  0  0  0  0  0  0  0  0
    3.0726   10.1043   19.8522 O   0  0  0  0  0  0  0  0  0  0  0  0
    5.5057    7.1196   21.1155 C   0  0  0  0  0  0  0  0  0  0  0  0
    7.0367   11.0229   21.9948 O   0  0  0  0  0  0  0  0  0  0  0  0
  1  8  4  0
  1 12  4  0
  2  9  1  0
  2 11  4  0
  2 25  4  0
  3 12  4  0
  3 14  1  0
  3 23  4  0
  4 13  4  0
  4 21  4  0
  4 24  1  0
  5  8  4  0
  5 23  4  0
  6 18  2  0
  7 15  4  0
  7 16  1  0
  7 27  4  0
  8 18  1  0
 10 18  1  0
 10 20  1  0
 11 15  4  0
 11 26  1  0
 13 22  4  0
 16 19  1  0
 16 20  2  0
 17 19  4  0
 17 21  4  0
 19 22  4  0
 20 28  1  0
 25 27  4  0
M  END
$$$$

 Created by Python create_sdf_string function

 28 30  0  0  0  0  0  0  0  0999 V2000
   11.4592   11.2893   18.7941 C   0  0  0  0  0  0  0  0  0  0  0  0
    3.4202    7.9009   20.3866 C   0  0  0  0  0  0  0  0  0  0  0  0
   13.5280   10.3522   19.3586 C   0  0  0  0  0  0  0  0  0  0  0  0
    9.6923    5.6468   22.7891 C   0  0  0  0  0  0  0  0  0  0  0  0
   11.7756   10.2554   20.8841 N   0  0  0  0  0  0  0  0  0  0  0  0
    8.9876   11.9370   19.8757 O   0  0  0  0  0  0  0  0  0  0  0  0
    6.0167    8.4478   21.1089 C   0  0  0  0  0  0  0  0  0  0  0  0
   11.0002   10.8890   20.0262 C   0  0  0  0  0  0  0  0  0  0  0  0
    2.1721    7.7393   20.0315 O   0  0  0  0  0  0  0  0  0  0  0  0
    9.1107   10.3880   21.3769 N   0  0  0  0  0  0  0  0  0  0  0  0
    3.9102    9.2008   20.3124 C   0  0  0  0  0  0  0  0  0  0  0  0
   12.7292   10.9960   18.4597 C   0  0  0  0  0  0  0  0  0  0  0  0
    9.3798    6.6793   23.6625 C   0  0  0  0  0  0  0  0  0  0  0  0
   14.7425   10.0739   19.0802 O   0  0  0  0  0  0  0  0  0  0  0  0
    5.1894    9.4673   20.7118 C   0  0  0  0  0  0  0  0  0  0  0  0
    7.3773    8.8224   21.4870 C   0  0  0  0  0  0  0  0  0  0  0  0
    8.4391    6.6439   21.0235 C   0  0  0  0  0  0  0  0  0  0  0  0
    9.6494   11.1353   20.4167 C   0  0  0  0  0  0  0  0  0  0  0  0
    8.1431    7.6829   21.9046 C   0  0  0  0  0  0  0  0  0  0  0  0
    7.7796   10.1314   21.5115 N   0  0  0  0  0  0  0  0  0  0  0  0
    9.2768    5.6183   21.4437 C   0  0  0  0  0  0  0  0  0  0  0  0
    8.6315    7.7322   23.1768 C   0  0  0  0  0  0  0  0  0  0  0  0
   13.0537    9.9821   20.5781 C   0  0  0  0  0  0  0  0  0  0  0  0
   10.3850    4.6575   23.2386 O   0  0  0  0  0  0  0  0  0  0  0  0
    4.2069    6.8450   20.7994 C   0  0  0  0  0  0  0  0  0  0  0  0
    3.0726   10.1043   19.8522 O   0  0  0  0  0  0  0  0  0  0  0  0
    5.5057    7.1196   21.1155 C   0  0  0  0  0  0  0  0  0  0  0  0
    7.0367   11.0229   21.9948 O   0  0  0  0  0  0  0  0  0  0  0  0
  1  8  4  0
  1 12  4  0
  2  9  1  0
  2 11  4  0
  2 25  4  0
  3 12  4  0
  3 14  1  0
  3 23  4  0
  4 13  4  0
  4 21  4  0
  4 24  1  0
  5  8  4  0
  5 23  4  0
  6 18  2  0
  7 15  4  0
  7 16  1  0
  7 27  4  0
  8 18  1  0
 10 18  1  0
 10 20  1  0
 11 15  4  0
 11 26  1  0
 13 22  4  0
 16 19  1  0
 16 20  2  0
 17 19  4  0
 17 21  4  0
 19 22  4  0
 20 28  1  0
 25 27  4  0
M  END
$$$$

 Created by Python create_sdf_string function

 28 30  0  0  0  0  0  0  0  0999 V2000
   11.4592   11.2893   18.7941 C   0  0  0  0  0  0  0  0  0  0  0  0
    3.4202    7.9009   20.3866 C   0  0  0  0  0  0  0  0  0  0  0  0
   13.5280   10.3522   19.3586 C   0  0  0  0  0  0  0  0  0  0  0  0
    9.6923    5.6468   22.7891 C   0  0  0  0  0  0  0  0  0  0  0  0
   11.7756   10.2554   20.8841 N   0  0  0  0  0  0  0  0  0  0  0  0
    8.9876   11.9370   19.8757 O   0  0  0  0  0  0  0  0  0  0  0  0
    6.0167    8.4478   21.1089 C   0  0  0  0  0  0  0  0  0  0  0  0
   11.0002   10.8890   20.0262 C   0  0  0  0  0  0  0  0  0  0  0  0
    2.1721    7.7393   20.0315 O   0  0  0  0  0  0  0  0  0  0  0  0
    9.1107   10.3880   21.3769 N   0  0  0  0  0  0  0  0  0  0  0  0
    3.9102    9.2008   20.3124 C   0  0  0  0  0  0  0  0  0  0  0  0
   12.7292   10.9960   18.4597 C   0  0  0  0  0  0  0  0  0  0  0  0
    9.3798    6.6793   23.6625 C   0  0  0  0  0  0  0  0  0  0  0  0
   14.7425   10.0739   19.0802 O   0  0  0  0  0  0  0  0  0  0  0  0
    5.1894    9.4673   20.7118 C   0  0  0  0  0  0  0  0  0  0  0  0
    7.3773    8.8224   21.4870 C   0  0  0  0  0  0  0  0  0  0  0  0
    8.4391    6.6439   21.0235 C   0  0  0  0  0  0  0  0  0  0  0  0
    9.6494   11.1353   20.4167 C   0  0  0  0  0  0  0  0  0  0  0  0
    8.1431    7.6829   21.9046 C   0  0  0  0  0  0  0  0  0  0  0  0
    7.7796   10.1314   21.5115 N   0  0  0  0  0  0  0  0  0  0  0  0
    9.2768    5.6183   21.4437 C   0  0  0  0  0  0  0  0  0  0  0  0
    8.6315    7.7322   23.1768 C   0  0  0  0  0  0  0  0  0  0  0  0
   13.0537    9.9821   20.5781 C   0  0  0  0  0  0  0  0  0  0  0  0
   10.3850    4.6575   23.2386 O   0  0  0  0  0  0  0  0  0  0  0  0
    4.2069    6.8450   20.7994 C   0  0  0  0  0  0  0  0  0  0  0  0
    3.0726   10.1043   19.8522 O   0  0  0  0  0  0  0  0  0  0  0  0
    5.5057    7.1196   21.1155 C   0  0  0  0  0  0  0  0  0  0  0  0
    7.0367   11.0229   21.9948 O   0  0  0  0  0  0  0  0  0  0  0  0
  1  8  4  0
  1 12  4  0
  2  9  1  0
  2 11  4  0
  2 25  4  0
  3 12  4  0
  3 14  1  0
  3 23  4  0
  4 13  4  0
  4 21  4  0
  4 24  1  0
  5  8  4  0
  5 23  4  0
  6 18  2  0
  7 15  4  0
  7 16  1  0
  7 27  4  0
  8 18  1  0
 10 18  1  0
 10 20  1  0
 11 15  4  0
 11 26  1  0
 13 22  4  0
 16 19  1  0
 16 20  2  0
 17 19  4  0
 17 21  4  0
 19 22  4  0
 20 28  1  0
 25 27  4  0
M  END
$$$$

 Created by Python create_sdf_string function

 28 30  0  0  0  0  0  0  0  0999 V2000
   11.4592   11.2893   18.7941 C   0  0  0  0  0  0  0  0  0  0  0  0
    3.4202    7.9009   20.3866 C   0  0  0  0  0  0  0  0  0  0  0  0
   13.5280   10.3522   19.3586 C   0  0  0  0  0  0  0  0  0  0  0  0
    9.6923    5.6468   22.7891 C   0  0  0  0  0  0  0  0  0  0  0  0
   11.7756   10.2554   20.8841 N   0  0  0  0  0  0  0  0  0  0  0  0
    8.9876   11.9370   19.8757 O   0  0  0  0  0  0  0  0  0  0  0  0
    6.0167    8.4478   21.1089 C   0  0  0  0  0  0  0  0  0  0  0  0
   11.0002   10.8890   20.0262 C   0  0  0  0  0  0  0  0  0  0  0  0
    2.1721    7.7393   20.0315 O   0  0  0  0  0  0  0  0  0  0  0  0
    9.1107   10.3880   21.3769 N   0  0  0  0  0  0  0  0  0  0  0  0
    3.9102    9.2008   20.3124 C   0  0  0  0  0  0  0  0  0  0  0  0
   12.7292   10.9960   18.4597 C   0  0  0  0  0  0  0  0  0  0  0  0
    9.3798    6.6793   23.6625 C   0  0  0  0  0  0  0  0  0  0  0  0
   14.7425   10.0739   19.0802 O   0  0  0  0  0  0  0  0  0  0  0  0
    5.1894    9.4673   20.7118 C   0  0  0  0  0  0  0  0  0  0  0  0
    7.3773    8.8224   21.4870 C   0  0  0  0  0  0  0  0  0  0  0  0
    8.4391    6.6439   21.0235 C   0  0  0  0  0  0  0  0  0  0  0  0
    9.6494   11.1353   20.4167 C   0  0  0  0  0  0  0  0  0  0  0  0
    8.1431    7.6829   21.9046 C   0  0  0  0  0  0  0  0  0  0  0  0
    7.7796   10.1314   21.5115 N   0  0  0  0  0  0  0  0  0  0  0  0
    9.2768    5.6183   21.4437 C   0  0  0  0  0  0  0  0  0  0  0  0
    8.6315    7.7322   23.1768 C   0  0  0  0  0  0  0  0  0  0  0  0
   13.0537    9.9821   20.5781 C   0  0  0  0  0  0  0  0  0  0  0  0
   10.3850    4.6575   23.2386 O   0  0  0  0  0  0  0  0  0  0  0  0
    4.2069    6.8450   20.7994 C   0  0  0  0  0  0  0  0  0  0  0  0
    3.0726   10.1043   19.8522 O   0  0  0  0  0  0  0  0  0  0  0  0
    5.5057    7.1196   21.1155 C   0  0  0  0  0  0  0  0  0  0  0  0
    7.0367   11.0229   21.9948 O   0  0  0  0  0  0  0  0  0  0  0  0
  1  8  4  0
  1 12  4  0
  2  9  1  0
  2 11  4  0
  2 25  4  0
  3 12  4  0
  3 14  1  0
  3 23  4  0
  4 13  4  0
  4 21  4  0
  4 24  1  0
  5  8  4  0
  5 23  4  0
  6 18  2  0
  7 15  4  0
  7 16  1  0
  7 27  4  0
  8 18  1  0
 10 18  1  0
 10 20  1  0
 11 15  4  0
 11 26  1  0
 13 22  4  0
 16 19  1  0
 16 20  2  0
 17 19  4  0
 17 21  4  0
 19 22  4  0
 20 28  1  0
 25 27  4  0
M  END
$$$$

 Created by Python create_sdf_string function

 28 30  0  0  0  0  0  0  0  0999 V2000
   11.4592   11.2893   18.7941 C   0  0  0  0  0  0  0  0  0  0  0  0
    3.4202    7.9009   20.3866 C   0  0  0  0  0  0  0  0  0  0  0  0
   13.5280   10.3522   19.3586 C   0  0  0  0  0  0  0  0  0  0  0  0
    9.6923    5.6468   22.7891 C   0  0  0  0  0  0  0  0  0  0  0  0
   11.7756   10.2554   20.8841 N   0  0  0  0  0  0  0  0  0  0  0  0
    8.9876   11.9370   19.8757 O   0  0  0  0  0  0  0  0  0  0  0  0
    6.0167    8.4478   21.1089 C   0  0  0  0  0  0  0  0  0  0  0  0
   11.0002   10.8890   20.0262 C   0  0  0  0  0  0  0  0  0  0  0  0
    2.1721    7.7393   20.0315 O   0  0  0  0  0  0  0  0  0  0  0  0
    9.1107   10.3880   21.3769 N   0  0  0  0  0  0  0  0  0  0  0  0
    3.9102    9.2008   20.3124 C   0  0  0  0  0  0  0  0  0  0  0  0
   12.7292   10.9960   18.4597 C   0  0  0  0  0  0  0  0  0  0  0  0
    9.3798    6.6793   23.6625 C   0  0  0  0  0  0  0  0  0  0  0  0
   14.7425   10.0739   19.0802 O   0  0  0  0  0  0  0  0  0  0  0  0
    5.1894    9.4673   20.7118 C   0  0  0  0  0  0  0  0  0  0  0  0
    7.3773    8.8224   21.4870 C   0  0  0  0  0  0  0  0  0  0  0  0
    8.4391    6.6439   21.0235 C   0  0  0  0  0  0  0  0  0  0  0  0
    9.6494   11.1353   20.4167 C   0  0  0  0  0  0  0  0  0  0  0  0
    8.1431    7.6829   21.9046 C   0  0  0  0  0  0  0  0  0  0  0  0
    7.7796   10.1314   21.5115 N   0  0  0  0  0  0  0  0  0  0  0  0
    9.2768    5.6183   21.4437 C   0  0  0  0  0  0  0  0  0  0  0  0
    8.6315    7.7322   23.1768 C   0  0  0  0  0  0  0  0  0  0  0  0
   13.0537    9.9821   20.5781 C   0  0  0  0  0  0  0  0  0  0  0  0
   10.3850    4.6575   23.2386 O   0  0  0  0  0  0  0  0  0  0  0  0
    4.2069    6.8450   20.7994 C   0  0  0  0  0  0  0  0  0  0  0  0
    3.0726   10.1043   19.8522 O   0  0  0  0  0  0  0  0  0  0  0  0
    5.5057    7.1196   21.1155 C   0  0  0  0  0  0  0  0  0  0  0  0
    7.0367   11.0229   21.9948 O   0  0  0  0  0  0  0  0  0  0  0  0
  1  8  4  0
  1 12  4  0
  2  9  1  0
  2 11  4  0
  2 25  4  0
  3 12  4  0
  3 14  1  0
  3 23  4  0
  4 13  4  0
  4 21  4  0
  4 24  1  0
  5  8  4  0
  5 23  4  0
  6 18  2  0
  7 15  4  0
  7 16  1  0
  7 27  4  0
  8 18  1  0
 10 18  1  0
 10 20  1  0
 11 15  4  0
 11 26  1  0
 13 22  4  0
 16 19  1  0
 16 20  2  0
 17 19  4  0
 17 21  4  0
 19 22  4  0
 20 28  1  0
 25 27  4  0
M  END
$$$$

 Created by Python create_sdf_string function

 28 30  0  0  0  0  0  0  0  0999 V2000
   11.4592   11.2893   18.7941 C   0  0  0  0  0  0  0  0  0  0  0  0
    3.4202    7.9009   20.3866 C   0  0  0  0  0  0  0  0  0  0  0  0
   13.5280   10.3522   19.3586 C   0  0  0  0  0  0  0  0  0  0  0  0
    9.6923    5.6468   22.7891 C   0  0  0  0  0  0  0  0  0  0  0  0
   11.7756   10.2554   20.8841 N   0  0  0  0  0  0  0  0  0  0  0  0
    8.9876   11.9370   19.8757 O   0  0  0  0  0  0  0  0  0  0  0  0
    6.0167    8.4478   21.1089 C   0  0  0  0  0  0  0  0  0  0  0  0
   11.0002   10.8890   20.0262 C   0  0  0  0  0  0  0  0  0  0  0  0
    2.1721    7.7393   20.0315 O   0  0  0  0  0  0  0  0  0  0  0  0
    9.1107   10.3880   21.3769 N   0  0  0  0  0  0  0  0  0  0  0  0
    3.9102    9.2008   20.3124 C   0  0  0  0  0  0  0  0  0  0  0  0
   12.7292   10.9960   18.4597 C   0  0  0  0  0  0  0  0  0  0  0  0
    9.3798    6.6793   23.6625 C   0  0  0  0  0  0  0  0  0  0  0  0
   14.7425   10.0739   19.0802 O   0  0  0  0  0  0  0  0  0  0  0  0
    5.1894    9.4673   20.7118 C   0  0  0  0  0  0  0  0  0  0  0  0
    7.3773    8.8224   21.4870 C   0  0  0  0  0  0  0  0  0  0  0  0
    8.4391    6.6439   21.0235 C   0  0  0  0  0  0  0  0  0  0  0  0
    9.6494   11.1353   20.4167 C   0  0  0  0  0  0  0  0  0  0  0  0
    8.1431    7.6829   21.9046 C   0  0  0  0  0  0  0  0  0  0  0  0
    7.7796   10.1314   21.5115 N   0  0  0  0  0  0  0  0  0  0  0  0
    9.2768    5.6183   21.4437 C   0  0  0  0  0  0  0  0  0  0  0  0
    8.6315    7.7322   23.1768 C   0  0  0  0  0  0  0  0  0  0  0  0
   13.0537    9.9821   20.5781 C   0  0  0  0  0  0  0  0  0  0  0  0
   10.3850    4.6575   23.2386 O   0  0  0  0  0  0  0  0  0  0  0  0
    4.2069    6.8450   20.7994 C   0  0  0  0  0  0  0  0  0  0  0  0
    3.0726   10.1043   19.8522 O   0  0  0  0  0  0  0  0  0  0  0  0
    5.5057    7.1196   21.1155 C   0  0  0  0  0  0  0  0  0  0  0  0
    7.0367   11.0229   21.9948 O   0  0  0  0  0  0  0  0  0  0  0  0
  1  8  4  0
  1 12  4  0
  2  9  1  0
  2 11  4  0
  2 25  4  0
  3 12  4  0
  3 14  1  0
  3 23  4  0
  4 13  4  0
  4 21  4  0
  4 24  1  0
  5  8  4  0
  5 23  4  0
  6 18  2  0
  7 15  4  0
  7 16  1  0
  7 27  4  0
  8 18  1  0
 10 18  1  0
 10 20  1  0
 11 15  4  0
 11 26  1  0
 13 22  4  0
 16 19  1  0
 16 20  2  0
 17 19  4  0
 17 21  4  0
 19 22  4  0
 20 28  1  0
 25 27  4  0
M  END
$$$$

 Created by Python create_sdf_string function

 28 30  0  0  0  0  0  0  0  0999 V2000
   11.4592   11.2893   18.7941 C   0  0  0  0  0  0  0  0  0  0  0  0
    3.4202    7.9009   20.3866 C   0  0  0  0  0  0  0  0  0  0  0  0
   13.5280   10.3522   19.3586 C   0  0  0  0  0  0  0  0  0  0  0  0
    9.6923    5.6468   22.7891 C   0  0  0  0  0  0  0  0  0  0  0  0
   11.7756   10.2554   20.8841 N   0  0  0  0  0  0  0  0  0  0  0  0
    8.9876   11.9370   19.8757 O   0  0  0  0  0  0  0  0  0  0  0  0
    6.0167    8.4478   21.1089 C   0  0  0  0  0  0  0  0  0  0  0  0
   11.0002   10.8890   20.0262 C   0  0  0  0  0  0  0  0  0  0  0  0
    2.1721    7.7393   20.0315 O   0  0  0  0  0  0  0  0  0  0  0  0
    9.1107   10.3880   21.3769 N   0  0  0  0  0  0  0  0  0  0  0  0
    3.9102    9.2008   20.3124 C   0  0  0  0  0  0  0  0  0  0  0  0
   12.7292   10.9960   18.4597 C   0  0  0  0  0  0  0  0  0  0  0  0
    9.3798    6.6793   23.6625 C   0  0  0  0  0  0  0  0  0  0  0  0
   14.7425   10.0739   19.0802 O   0  0  0  0  0  0  0  0  0  0  0  0
    5.1894    9.4673   20.7118 C   0  0  0  0  0  0  0  0  0  0  0  0
    7.3773    8.8224   21.4870 C   0  0  0  0  0  0  0  0  0  0  0  0
    8.4391    6.6439   21.0235 C   0  0  0  0  0  0  0  0  0  0  0  0
    9.6494   11.1353   20.4167 C   0  0  0  0  0  0  0  0  0  0  0  0
    8.1431    7.6829   21.9046 C   0  0  0  0  0  0  0  0  0  0  0  0
    7.7796   10.1314   21.5115 N   0  0  0  0  0  0  0  0  0  0  0  0
    9.2768    5.6183   21.4437 C   0  0  0  0  0  0  0  0  0  0  0  0
    8.6315    7.7322   23.1768 C   0  0  0  0  0  0  0  0  0  0  0  0
   13.0537    9.9821   20.5781 C   0  0  0  0  0  0  0  0  0  0  0  0
   10.3850    4.6575   23.2386 O   0  0  0  0  0  0  0  0  0  0  0  0
    4.2069    6.8450   20.7994 C   0  0  0  0  0  0  0  0  0  0  0  0
    3.0726   10.1043   19.8522 O   0  0  0  0  0  0  0  0  0  0  0  0
    5.5057    7.1196   21.1155 C   0  0  0  0  0  0  0  0  0  0  0  0
    7.0367   11.0229   21.9948 O   0  0  0  0  0  0  0  0  0  0  0  0
  1  8  4  0
  1 12  4  0
  2  9  1  0
  2 11  4  0
  2 25  4  0
  3 12  4  0
  3 14  1  0
  3 23  4  0
  4 13  4  0
  4 21  4  0
  4 24  1  0
  5  8  4  0
  5 23  4  0
  6 18  2  0
  7 15  4  0
  7 16  1  0
  7 27  4  0
  8 18  1  0
 10 18  1  0
 10 20  1  0
 11 15  4  0
 11 26  1  0
 13 22  4  0
 16 19  1  0
 16 20  2  0
 17 19  4  0
 17 21  4  0
 19 22  4  0
 20 28  1  0
 25 27  4  0
M  END
$$$$

 Created by Python create_sdf_string function

 28 30  0  0  0  0  0  0  0  0999 V2000
   11.4592   11.2893   18.7941 C   0  0  0  0  0  0  0  0  0  0  0  0
    3.4202    7.9009   20.3866 C   0  0  0  0  0  0  0  0  0  0  0  0
   13.5280   10.3522   19.3586 C   0  0  0  0  0  0  0  0  0  0  0  0
    9.6923    5.6468   22.7891 C   0  0  0  0  0  0  0  0  0  0  0  0
   11.7756   10.2554   20.8841 N   0  0  0  0  0  0  0  0  0  0  0  0
    8.9876   11.9370   19.8757 O   0  0  0  0  0  0  0  0  0  0  0  0
    6.0167    8.4478   21.1089 C   0  0  0  0  0  0  0  0  0  0  0  0
   11.0002   10.8890   20.0262 C   0  0  0  0  0  0  0  0  0  0  0  0
    2.1721    7.7393   20.0315 O   0  0  0  0  0  0  0  0  0  0  0  0
    9.1107   10.3880   21.3769 N   0  0  0  0  0  0  0  0  0  0  0  0
    3.9102    9.2008   20.3124 C   0  0  0  0  0  0  0  0  0  0  0  0
   12.7292   10.9960   18.4597 C   0  0  0  0  0  0  0  0  0  0  0  0
    9.3798    6.6793   23.6625 C   0  0  0  0  0  0  0  0  0  0  0  0
   14.7425   10.0739   19.0802 O   0  0  0  0  0  0  0  0  0  0  0  0
    5.1894    9.4673   20.7118 C   0  0  0  0  0  0  0  0  0  0  0  0
    7.3773    8.8224   21.4870 C   0  0  0  0  0  0  0  0  0  0  0  0
    8.4391    6.6439   21.0235 C   0  0  0  0  0  0  0  0  0  0  0  0
    9.6494   11.1353   20.4167 C   0  0  0  0  0  0  0  0  0  0  0  0
    8.1431    7.6829   21.9046 C   0  0  0  0  0  0  0  0  0  0  0  0
    7.7796   10.1314   21.5115 N   0  0  0  0  0  0  0  0  0  0  0  0
    9.2768    5.6183   21.4437 C   0  0  0  0  0  0  0  0  0  0  0  0
    8.6315    7.7322   23.1768 C   0  0  0  0  0  0  0  0  0  0  0  0
   13.0537    9.9821   20.5781 C   0  0  0  0  0  0  0  0  0  0  0  0
   10.3850    4.6575   23.2386 O   0  0  0  0  0  0  0  0  0  0  0  0
    4.2069    6.8450   20.7994 C   0  0  0  0  0  0  0  0  0  0  0  0
    3.0726   10.1043   19.8522 O   0  0  0  0  0  0  0  0  0  0  0  0
    5.5057    7.1196   21.1155 C   0  0  0  0  0  0  0  0  0  0  0  0
    7.0367   11.0229   21.9948 O   0  0  0  0  0  0  0  0  0  0  0  0
  1  8  4  0
  1 12  4  0
  2  9  1  0
  2 11  4  0
  2 25  4  0
  3 12  4  0
  3 14  1  0
  3 23  4  0
  4 13  4  0
  4 21  4  0
  4 24  1  0
  5  8  4  0
  5 23  4  0
  6 18  2  0
  7 15  4  0
  7 16  1  0
  7 27  4  0
  8 18  1  0
 10 18  1  0
 10 20  1  0
 11 15  4  0
 11 26  1  0
 13 22  4  0
 16 19  1  0
 16 20  2  0
 17 19  4  0
 17 21  4  0
 19 22  4  0
 20 28  1  0
 25 27  4  0
M  END
$$$$

 Created by Python create_sdf_string function

 28 30  0  0  0  0  0  0  0  0999 V2000
   11.4592   11.2893   18.7941 C   0  0  0  0  0  0  0  0  0  0  0  0
    3.4202    7.9009   20.3866 C   0  0  0  0  0  0  0  0  0  0  0  0
   13.5280   10.3522   19.3586 C   0  0  0  0  0  0  0  0  0  0  0  0
    9.6923    5.6468   22.7891 C   0  0  0  0  0  0  0  0  0  0  0  0
   11.7756   10.2554   20.8841 N   0  0  0  0  0  0  0  0  0  0  0  0
    8.9876   11.9370   19.8757 O   0  0  0  0  0  0  0  0  0  0  0  0
    6.0167    8.4478   21.1089 C   0  0  0  0  0  0  0  0  0  0  0  0
   11.0002   10.8890   20.0262 C   0  0  0  0  0  0  0  0  0  0  0  0
    2.1721    7.7393   20.0315 O   0  0  0  0  0  0  0  0  0  0  0  0
    9.1107   10.3880   21.3769 N   0  0  0  0  0  0  0  0  0  0  0  0
    3.9102    9.2008   20.3124 C   0  0  0  0  0  0  0  0  0  0  0  0
   12.7292   10.9960   18.4597 C   0  0  0  0  0  0  0  0  0  0  0  0
    9.3798    6.6793   23.6625 C   0  0  0  0  0  0  0  0  0  0  0  0
   14.7425   10.0739   19.0802 O   0  0  0  0  0  0  0  0  0  0  0  0
    5.1894    9.4673   20.7118 C   0  0  0  0  0  0  0  0  0  0  0  0
    7.3773    8.8224   21.4870 C   0  0  0  0  0  0  0  0  0  0  0  0
    8.4391    6.6439   21.0235 C   0  0  0  0  0  0  0  0  0  0  0  0
    9.6494   11.1353   20.4167 C   0  0  0  0  0  0  0  0  0  0  0  0
    8.1431    7.6829   21.9046 C   0  0  0  0  0  0  0  0  0  0  0  0
    7.7796   10.1314   21.5115 N   0  0  0  0  0  0  0  0  0  0  0  0
    9.2768    5.6183   21.4437 C   0  0  0  0  0  0  0  0  0  0  0  0
    8.6315    7.7322   23.1768 C   0  0  0  0  0  0  0  0  0  0  0  0
   13.0537    9.9821   20.5781 C   0  0  0  0  0  0  0  0  0  0  0  0
   10.3850    4.6575   23.2386 O   0  0  0  0  0  0  0  0  0  0  0  0
    4.2069    6.8450   20.7994 C   0  0  0  0  0  0  0  0  0  0  0  0
    3.0726   10.1043   19.8522 O   0  0  0  0  0  0  0  0  0  0  0  0
    5.5057    7.1196   21.1155 C   0  0  0  0  0  0  0  0  0  0  0  0
    7.0367   11.0229   21.9948 O   0  0  0  0  0  0  0  0  0  0  0  0
  1  8  4  0
  1 12  4  0
  2  9  1  0
  2 11  4  0
  2 25  4  0
  3 12  4  0
  3 14  1  0
  3 23  4  0
  4 13  4  0
  4 21  4  0
  4 24  1  0
  5  8  4  0
  5 23  4  0
  6 18  2  0
  7 15  4  0
  7 16  1  0
  7 27  4  0
  8 18  1  0
 10 18  1  0
 10 20  1  0
 11 15  4  0
 11 26  1  0
 13 22  4  0
 16 19  1  0
 16 20  2  0
 17 19  4  0
 17 21  4  0
 19 22  4  0
 20 28  1  0
 25 27  4  0
M  END
$$$$

 Created by Python create_sdf_string function

 28 30  0  0  0  0  0  0  0  0999 V2000
   11.4592   11.2893   18.7941 C   0  0  0  0  0  0  0  0  0  0  0  0
    3.4202    7.9009   20.3866 C   0  0  0  0  0  0  0  0  0  0  0  0
   13.5280   10.3522   19.3586 C   0  0  0  0  0  0  0  0  0  0  0  0
    9.6923    5.6468   22.7891 C   0  0  0  0  0  0  0  0  0  0  0  0
   11.7756   10.2554   20.8841 N   0  0  0  0  0  0  0  0  0  0  0  0
    8.9876   11.9370   19.8757 O   0  0  0  0  0  0  0  0  0  0  0  0
    6.0167    8.4478   21.1089 C   0  0  0  0  0  0  0  0  0  0  0  0
   11.0002   10.8890   20.0262 C   0  0  0  0  0  0  0  0  0  0  0  0
    2.1721    7.7393   20.0315 O   0  0  0  0  0  0  0  0  0  0  0  0
    9.1107   10.3880   21.3769 N   0  0  0  0  0  0  0  0  0  0  0  0
    3.9102    9.2008   20.3124 C   0  0  0  0  0  0  0  0  0  0  0  0
   12.7292   10.9960   18.4597 C   0  0  0  0  0  0  0  0  0  0  0  0
    9.3798    6.6793   23.6625 C   0  0  0  0  0  0  0  0  0  0  0  0
   14.7425   10.0739   19.0802 O   0  0  0  0  0  0  0  0  0  0  0  0
    5.1894    9.4673   20.7118 C   0  0  0  0  0  0  0  0  0  0  0  0
    7.3773    8.8224   21.4870 C   0  0  0  0  0  0  0  0  0  0  0  0
    8.4391    6.6439   21.0235 C   0  0  0  0  0  0  0  0  0  0  0  0
    9.6494   11.1353   20.4167 C   0  0  0  0  0  0  0  0  0  0  0  0
    8.1431    7.6829   21.9046 C   0  0  0  0  0  0  0  0  0  0  0  0
    7.7796   10.1314   21.5115 N   0  0  0  0  0  0  0  0  0  0  0  0
    9.2768    5.6183   21.4437 C   0  0  0  0  0  0  0  0  0  0  0  0
    8.6315    7.7322   23.1768 C   0  0  0  0  0  0  0  0  0  0  0  0
   13.0537    9.9821   20.5781 C   0  0  0  0  0  0  0  0  0  0  0  0
   10.3850    4.6575   23.2386 O   0  0  0  0  0  0  0  0  0  0  0  0
    4.2069    6.8450   20.7994 C   0  0  0  0  0  0  0  0  0  0  0  0
    3.0726   10.1043   19.8522 O   0  0  0  0  0  0  0  0  0  0  0  0
    5.5057    7.1196   21.1155 C   0  0  0  0  0  0  0  0  0  0  0  0
    7.0367   11.0229   21.9948 O   0  0  0  0  0  0  0  0  0  0  0  0
  1  8  4  0
  1 12  4  0
  2  9  1  0
  2 11  4  0
  2 25  4  0
  3 12  4  0
  3 14  1  0
  3 23  4  0
  4 13  4  0
  4 21  4  0
  4 24  1  0
  5  8  4  0
  5 23  4  0
  6 18  2  0
  7 15  4  0
  7 16  1  0
  7 27  4  0
  8 18  1  0
 10 18  1  0
 10 20  1  0
 11 15  4  0
 11 26  1  0
 13 22  4  0
 16 19  1  0
 16 20  2  0
 17 19  4  0
 17 21  4  0
 19 22  4  0
 20 28  1  0
 25 27  4  0
M  END
$$$$

 Created by Python create_sdf_string function

 28 30  0  0  0  0  0  0  0  0999 V2000
   11.4592   11.2893   18.7941 C   0  0  0  0  0  0  0  0  0  0  0  0
    3.4202    7.9009   20.3866 C   0  0  0  0  0  0  0  0  0  0  0  0
   13.5280   10.3522   19.3586 C   0  0  0  0  0  0  0  0  0  0  0  0
    9.6923    5.6468   22.7891 C   0  0  0  0  0  0  0  0  0  0  0  0
   11.7756   10.2554   20.8841 N   0  0  0  0  0  0  0  0  0  0  0  0
    8.9876   11.9370   19.8757 O   0  0  0  0  0  0  0  0  0  0  0  0
    6.0167    8.4478   21.1089 C   0  0  0  0  0  0  0  0  0  0  0  0
   11.0002   10.8890   20.0262 C   0  0  0  0  0  0  0  0  0  0  0  0
    2.1721    7.7393   20.0315 O   0  0  0  0  0  0  0  0  0  0  0  0
    9.1107   10.3880   21.3769 N   0  0  0  0  0  0  0  0  0  0  0  0
    3.9102    9.2008   20.3124 C   0  0  0  0  0  0  0  0  0  0  0  0
   12.7292   10.9960   18.4597 C   0  0  0  0  0  0  0  0  0  0  0  0
    9.3798    6.6793   23.6625 C   0  0  0  0  0  0  0  0  0  0  0  0
   14.7425   10.0739   19.0802 O   0  0  0  0  0  0  0  0  0  0  0  0
    5.1894    9.4673   20.7118 C   0  0  0  0  0  0  0  0  0  0  0  0
    7.3773    8.8224   21.4870 C   0  0  0  0  0  0  0  0  0  0  0  0
    8.4391    6.6439   21.0235 C   0  0  0  0  0  0  0  0  0  0  0  0
    9.6494   11.1353   20.4167 C   0  0  0  0  0  0  0  0  0  0  0  0
    8.1431    7.6829   21.9046 C   0  0  0  0  0  0  0  0  0  0  0  0
    7.7796   10.1314   21.5115 N   0  0  0  0  0  0  0  0  0  0  0  0
    9.2768    5.6183   21.4437 C   0  0  0  0  0  0  0  0  0  0  0  0
    8.6315    7.7322   23.1768 C   0  0  0  0  0  0  0  0  0  0  0  0
   13.0537    9.9821   20.5781 C   0  0  0  0  0  0  0  0  0  0  0  0
   10.3850    4.6575   23.2386 O   0  0  0  0  0  0  0  0  0  0  0  0
    4.2069    6.8450   20.7994 C   0  0  0  0  0  0  0  0  0  0  0  0
    3.0726   10.1043   19.8522 O   0  0  0  0  0  0  0  0  0  0  0  0
    5.5057    7.1196   21.1155 C   0  0  0  0  0  0  0  0  0  0  0  0
    7.0367   11.0229   21.9948 O   0  0  0  0  0  0  0  0  0  0  0  0
  1  8  4  0
  1 12  4  0
  2  9  1  0
  2 11  4  0
  2 25  4  0
  3 12  4  0
  3 14  1  0
  3 23  4  0
  4 13  4  0
  4 21  4  0
  4 24  1  0
  5  8  4  0
  5 23  4  0
  6 18  2  0
  7 15  4  0
  7 16  1  0
  7 27  4  0
  8 18  1  0
 10 18  1  0
 10 20  1  0
 11 15  4  0
 11 26  1  0
 13 22  4  0
 16 19  1  0
 16 20  2  0
 17 19  4  0
 17 21  4  0
 19 22  4  0
 20 28  1  0
 25 27  4  0
M  END
$$$$

 Created by Python create_sdf_string function

 28 30  0  0  0  0  0  0  0  0999 V2000
   11.4592   11.2893   18.7941 C   0  0  0  0  0  0  0  0  0  0  0  0
    3.4202    7.9009   20.3866 C   0  0  0  0  0  0  0  0  0  0  0  0
   13.5280   10.3522   19.3586 C   0  0  0  0  0  0  0  0  0  0  0  0
    9.6923    5.6468   22.7891 C   0  0  0  0  0  0  0  0  0  0  0  0
   11.7756   10.2554   20.8841 N   0  0  0  0  0  0  0  0  0  0  0  0
    8.9876   11.9370   19.8757 O   0  0  0  0  0  0  0  0  0  0  0  0
    6.0167    8.4478   21.1089 C   0  0  0  0  0  0  0  0  0  0  0  0
   11.0002   10.8890   20.0262 C   0  0  0  0  0  0  0  0  0  0  0  0
    2.1721    7.7393   20.0315 O   0  0  0  0  0  0  0  0  0  0  0  0
    9.1107   10.3880   21.3769 N   0  0  0  0  0  0  0  0  0  0  0  0
    3.9102    9.2008   20.3124 C   0  0  0  0  0  0  0  0  0  0  0  0
   12.7292   10.9960   18.4597 C   0  0  0  0  0  0  0  0  0  0  0  0
    9.3798    6.6793   23.6625 C   0  0  0  0  0  0  0  0  0  0  0  0
   14.7425   10.0739   19.0802 O   0  0  0  0  0  0  0  0  0  0  0  0
    5.1894    9.4673   20.7118 C   0  0  0  0  0  0  0  0  0  0  0  0
    7.3773    8.8224   21.4870 C   0  0  0  0  0  0  0  0  0  0  0  0
    8.4391    6.6439   21.0235 C   0  0  0  0  0  0  0  0  0  0  0  0
    9.6494   11.1353   20.4167 C   0  0  0  0  0  0  0  0  0  0  0  0
    8.1431    7.6829   21.9046 C   0  0  0  0  0  0  0  0  0  0  0  0
    7.7796   10.1314   21.5115 N   0  0  0  0  0  0  0  0  0  0  0  0
    9.2768    5.6183   21.4437 C   0  0  0  0  0  0  0  0  0  0  0  0
    8.6315    7.7322   23.1768 C   0  0  0  0  0  0  0  0  0  0  0  0
   13.0537    9.9821   20.5781 C   0  0  0  0  0  0  0  0  0  0  0  0
   10.3850    4.6575   23.2386 O   0  0  0  0  0  0  0  0  0  0  0  0
    4.2069    6.8450   20.7994 C   0  0  0  0  0  0  0  0  0  0  0  0
    3.0726   10.1043   19.8522 O   0  0  0  0  0  0  0  0  0  0  0  0
    5.5057    7.1196   21.1155 C   0  0  0  0  0  0  0  0  0  0  0  0
    7.0367   11.0229   21.9948 O   0  0  0  0  0  0  0  0  0  0  0  0
  1  8  4  0
  1 12  4  0
  2  9  1  0
  2 11  4  0
  2 25  4  0
  3 12  4  0
  3 14  1  0
  3 23  4  0
  4 13  4  0
  4 21  4  0
  4 24  1  0
  5  8  4  0
  5 23  4  0
  6 18  2  0
  7 15  4  0
  7 16  1  0
  7 27  4  0
  8 18  1  0
 10 18  1  0
 10 20  1  0
 11 15  4  0
 11 26  1  0
 13 22  4  0
 16 19  1  0
 16 20  2  0
 17 19  4  0
 17 21  4  0
 19 22  4  0
 20 28  1  0
 25 27  4  0
M  END
$$$$

 Created by Python create_sdf_string function

 28 30  0  0  0  0  0  0  0  0999 V2000
   11.4592   11.2893   18.7941 C   0  0  0  0  0  0  0  0  0  0  0  0
    3.4202    7.9009   20.3866 C   0  0  0  0  0  0  0  0  0  0  0  0
   13.5280   10.3522   19.3586 C   0  0  0  0  0  0  0  0  0  0  0  0
    9.6923    5.6468   22.7891 C   0  0  0  0  0  0  0  0  0  0  0  0
   11.7756   10.2554   20.8841 N   0  0  0  0  0  0  0  0  0  0  0  0
    8.9876   11.9370   19.8757 O   0  0  0  0  0  0  0  0  0  0  0  0
    6.0167    8.4478   21.1089 C   0  0  0  0  0  0  0  0  0  0  0  0
   11.0002   10.8890   20.0262 C   0  0  0  0  0  0  0  0  0  0  0  0
    2.1721    7.7393   20.0315 O   0  0  0  0  0  0  0  0  0  0  0  0
    9.1107   10.3880   21.3769 N   0  0  0  0  0  0  0  0  0  0  0  0
    3.9102    9.2008   20.3124 C   0  0  0  0  0  0  0  0  0  0  0  0
   12.7292   10.9960   18.4597 C   0  0  0  0  0  0  0  0  0  0  0  0
    9.3798    6.6793   23.6625 C   0  0  0  0  0  0  0  0  0  0  0  0
   14.7425   10.0739   19.0802 O   0  0  0  0  0  0  0  0  0  0  0  0
    5.1894    9.4673   20.7118 C   0  0  0  0  0  0  0  0  0  0  0  0
    7.3773    8.8224   21.4870 C   0  0  0  0  0  0  0  0  0  0  0  0
    8.4391    6.6439   21.0235 C   0  0  0  0  0  0  0  0  0  0  0  0
    9.6494   11.1353   20.4167 C   0  0  0  0  0  0  0  0  0  0  0  0
    8.1431    7.6829   21.9046 C   0  0  0  0  0  0  0  0  0  0  0  0
    7.7796   10.1314   21.5115 N   0  0  0  0  0  0  0  0  0  0  0  0
    9.2768    5.6183   21.4437 C   0  0  0  0  0  0  0  0  0  0  0  0
    8.6315    7.7322   23.1768 C   0  0  0  0  0  0  0  0  0  0  0  0
   13.0537    9.9821   20.5781 C   0  0  0  0  0  0  0  0  0  0  0  0
   10.3850    4.6575   23.2386 O   0  0  0  0  0  0  0  0  0  0  0  0
    4.2069    6.8450   20.7994 C   0  0  0  0  0  0  0  0  0  0  0  0
    3.0726   10.1043   19.8522 O   0  0  0  0  0  0  0  0  0  0  0  0
    5.5057    7.1196   21.1155 C   0  0  0  0  0  0  0  0  0  0  0  0
    7.0367   11.0229   21.9948 O   0  0  0  0  0  0  0  0  0  0  0  0
  1  8  4  0
  1 12  4  0
  2  9  1  0
  2 11  4  0
  2 25  4  0
  3 12  4  0
  3 14  1  0
  3 23  4  0
  4 13  4  0
  4 21  4  0
  4 24  1  0
  5  8  4  0
  5 23  4  0
  6 18  2  0
  7 15  4  0
  7 16  1  0
  7 27  4  0
  8 18  1  0
 10 18  1  0
 10 20  1  0
 11 15  4  0
 11 26  1  0
 13 22  4  0
 16 19  1  0
 16 20  2  0
 17 19  4  0
 17 21  4  0
 19 22  4  0
 20 28  1  0
 25 27  4  0
M  END
$$$$

 Created by Python create_sdf_string function

 28 30  0  0  0  0  0  0  0  0999 V2000
   11.4592   11.2893   18.7941 C   0  0  0  0  0  0  0  0  0  0  0  0
    3.4202    7.9009   20.3866 C   0  0  0  0  0  0  0  0  0  0  0  0
   13.5280   10.3522   19.3586 C   0  0  0  0  0  0  0  0  0  0  0  0
    9.6923    5.6468   22.7891 C   0  0  0  0  0  0  0  0  0  0  0  0
   11.7756   10.2554   20.8841 N   0  0  0  0  0  0  0  0  0  0  0  0
    8.9876   11.9370   19.8757 O   0  0  0  0  0  0  0  0  0  0  0  0
    6.0167    8.4478   21.1089 C   0  0  0  0  0  0  0  0  0  0  0  0
   11.0002   10.8890   20.0262 C   0  0  0  0  0  0  0  0  0  0  0  0
    2.1721    7.7393   20.0315 O   0  0  0  0  0  0  0  0  0  0  0  0
    9.1107   10.3880   21.3769 N   0  0  0  0  0  0  0  0  0  0  0  0
    3.9102    9.2008   20.3124 C   0  0  0  0  0  0  0  0  0  0  0  0
   12.7292   10.9960   18.4597 C   0  0  0  0  0  0  0  0  0  0  0  0
    9.3798    6.6793   23.6625 C   0  0  0  0  0  0  0  0  0  0  0  0
   14.7425   10.0739   19.0802 O   0  0  0  0  0  0  0  0  0  0  0  0
    5.1894    9.4673   20.7118 C   0  0  0  0  0  0  0  0  0  0  0  0
    7.3773    8.8224   21.4870 C   0  0  0  0  0  0  0  0  0  0  0  0
    8.4391    6.6439   21.0235 C   0  0  0  0  0  0  0  0  0  0  0  0
    9.6494   11.1353   20.4167 C   0  0  0  0  0  0  0  0  0  0  0  0
    8.1431    7.6829   21.9046 C   0  0  0  0  0  0  0  0  0  0  0  0
    7.7796   10.1314   21.5115 N   0  0  0  0  0  0  0  0  0  0  0  0
    9.2768    5.6183   21.4437 C   0  0  0  0  0  0  0  0  0  0  0  0
    8.6315    7.7322   23.1768 C   0  0  0  0  0  0  0  0  0  0  0  0
   13.0537    9.9821   20.5781 C   0  0  0  0  0  0  0  0  0  0  0  0
   10.3850    4.6575   23.2386 O   0  0  0  0  0  0  0  0  0  0  0  0
    4.2069    6.8450   20.7994 C   0  0  0  0  0  0  0  0  0  0  0  0
    3.0726   10.1043   19.8522 O   0  0  0  0  0  0  0  0  0  0  0  0
    5.5057    7.1196   21.1155 C   0  0  0  0  0  0  0  0  0  0  0  0
    7.0367   11.0229   21.9948 O   0  0  0  0  0  0  0  0  0  0  0  0
  1  8  4  0
  1 12  4  0
  2  9  1  0
  2 11  4  0
  2 25  4  0
  3 12  4  0
  3 14  1  0
  3 23  4  0
  4 13  4  0
  4 21  4  0
  4 24  1  0
  5  8  4  0
  5 23  4  0
  6 18  2  0
  7 15  4  0
  7 16  1  0
  7 27  4  0
  8 18  1  0
 10 18  1  0
 10 20  1  0
 11 15  4  0
 11 26  1  0
 13 22  4  0
 16 19  1  0
 16 20  2  0
 17 19  4  0
 17 21  4  0
 19 22  4  0
 20 28  1  0
 25 27  4  0
M  END
$$$$

 Created by Python create_sdf_string function

 28 30  0  0  0  0  0  0  0  0999 V2000
   11.4592   11.2893   18.7941 C   0  0  0  0  0  0  0  0  0  0  0  0
    3.4202    7.9009   20.3866 C   0  0  0  0  0  0  0  0  0  0  0  0
   13.5280   10.3522   19.3586 C   0  0  0  0  0  0  0  0  0  0  0  0
    9.6923    5.6468   22.7891 C   0  0  0  0  0  0  0  0  0  0  0  0
   11.7756   10.2554   20.8841 N   0  0  0  0  0  0  0  0  0  0  0  0
    8.9876   11.9370   19.8757 O   0  0  0  0  0  0  0  0  0  0  0  0
    6.0167    8.4478   21.1089 C   0  0  0  0  0  0  0  0  0  0  0  0
   11.0002   10.8890   20.0262 C   0  0  0  0  0  0  0  0  0  0  0  0
    2.1721    7.7393   20.0315 O   0  0  0  0  0  0  0  0  0  0  0  0
    9.1107   10.3880   21.3769 N   0  0  0  0  0  0  0  0  0  0  0  0
    3.9102    9.2008   20.3124 C   0  0  0  0  0  0  0  0  0  0  0  0
   12.7292   10.9960   18.4597 C   0  0  0  0  0  0  0  0  0  0  0  0
    9.3798    6.6793   23.6625 C   0  0  0  0  0  0  0  0  0  0  0  0
   14.7425   10.0739   19.0802 O   0  0  0  0  0  0  0  0  0  0  0  0
    5.1894    9.4673   20.7118 C   0  0  0  0  0  0  0  0  0  0  0  0
    7.3773    8.8224   21.4870 C   0  0  0  0  0  0  0  0  0  0  0  0
    8.4391    6.6439   21.0235 C   0  0  0  0  0  0  0  0  0  0  0  0
    9.6494   11.1353   20.4167 C   0  0  0  0  0  0  0  0  0  0  0  0
    8.1431    7.6829   21.9046 C   0  0  0  0  0  0  0  0  0  0  0  0
    7.7796   10.1314   21.5115 N   0  0  0  0  0  0  0  0  0  0  0  0
    9.2768    5.6183   21.4437 C   0  0  0  0  0  0  0  0  0  0  0  0
    8.6315    7.7322   23.1768 C   0  0  0  0  0  0  0  0  0  0  0  0
   13.0537    9.9821   20.5781 C   0  0  0  0  0  0  0  0  0  0  0  0
   10.3850    4.6575   23.2386 O   0  0  0  0  0  0  0  0  0  0  0  0
    4.2069    6.8450   20.7994 C   0  0  0  0  0  0  0  0  0  0  0  0
    3.0726   10.1043   19.8522 O   0  0  0  0  0  0  0  0  0  0  0  0
    5.5057    7.1196   21.1155 C   0  0  0  0  0  0  0  0  0  0  0  0
    7.0367   11.0229   21.9948 O   0  0  0  0  0  0  0  0  0  0  0  0
  1  8  4  0
  1 12  4  0
  2  9  1  0
  2 11  4  0
  2 25  4  0
  3 12  4  0
  3 14  1  0
  3 23  4  0
  4 13  4  0
  4 21  4  0
  4 24  1  0
  5  8  4  0
  5 23  4  0
  6 18  2  0
  7 15  4  0
  7 16  1  0
  7 27  4  0
  8 18  1  0
 10 18  1  0
 10 20  1  0
 11 15  4  0
 11 26  1  0
 13 22  4  0
 16 19  1  0
 16 20  2  0
 17 19  4  0
 17 21  4  0
 19 22  4  0
 20 28  1  0
 25 27  4  0
M  END
$$$$

 Created by Python create_sdf_string function

 28 30  0  0  0  0  0  0  0  0999 V2000
   11.4592   11.2893   18.7941 C   0  0  0  0  0  0  0  0  0  0  0  0
    3.4202    7.9009   20.3866 C   0  0  0  0  0  0  0  0  0  0  0  0
   13.5280   10.3522   19.3586 C   0  0  0  0  0  0  0  0  0  0  0  0
    9.6923    5.6468   22.7891 C   0  0  0  0  0  0  0  0  0  0  0  0
   11.7756   10.2554   20.8841 N   0  0  0  0  0  0  0  0  0  0  0  0
    8.9876   11.9370   19.8757 O   0  0  0  0  0  0  0  0  0  0  0  0
    6.0167    8.4478   21.1089 C   0  0  0  0  0  0  0  0  0  0  0  0
   11.0002   10.8890   20.0262 C   0  0  0  0  0  0  0  0  0  0  0  0
    2.1721    7.7393   20.0315 O   0  0  0  0  0  0  0  0  0  0  0  0
    9.1107   10.3880   21.3769 N   0  0  0  0  0  0  0  0  0  0  0  0
    3.9102    9.2008   20.3124 C   0  0  0  0  0  0  0  0  0  0  0  0
   12.7292   10.9960   18.4597 C   0  0  0  0  0  0  0  0  0  0  0  0
    9.3798    6.6793   23.6625 C   0  0  0  0  0  0  0  0  0  0  0  0
   14.7425   10.0739   19.0802 O   0  0  0  0  0  0  0  0  0  0  0  0
    5.1894    9.4673   20.7118 C   0  0  0  0  0  0  0  0  0  0  0  0
    7.3773    8.8224   21.4870 C   0  0  0  0  0  0  0  0  0  0  0  0
    8.4391    6.6439   21.0235 C   0  0  0  0  0  0  0  0  0  0  0  0
    9.6494   11.1353   20.4167 C   0  0  0  0  0  0  0  0  0  0  0  0
    8.1431    7.6829   21.9046 C   0  0  0  0  0  0  0  0  0  0  0  0
    7.7796   10.1314   21.5115 N   0  0  0  0  0  0  0  0  0  0  0  0
    9.2768    5.6183   21.4437 C   0  0  0  0  0  0  0  0  0  0  0  0
    8.6315    7.7322   23.1768 C   0  0  0  0  0  0  0  0  0  0  0  0
   13.0537    9.9821   20.5781 C   0  0  0  0  0  0  0  0  0  0  0  0
   10.3850    4.6575   23.2386 O   0  0  0  0  0  0  0  0  0  0  0  0
    4.2069    6.8450   20.7994 C   0  0  0  0  0  0  0  0  0  0  0  0
    3.0726   10.1043   19.8522 O   0  0  0  0  0  0  0  0  0  0  0  0
    5.5057    7.1196   21.1155 C   0  0  0  0  0  0  0  0  0  0  0  0
    7.0367   11.0229   21.9948 O   0  0  0  0  0  0  0  0  0  0  0  0
  1  8  4  0
  1 12  4  0
  2  9  1  0
  2 11  4  0
  2 25  4  0
  3 12  4  0
  3 14  1  0
  3 23  4  0
  4 13  4  0
  4 21  4  0
  4 24  1  0
  5  8  4  0
  5 23  4  0
  6 18  2  0
  7 15  4  0
  7 16  1  0
  7 27  4  0
  8 18  1  0
 10 18  1  0
 10 20  1  0
 11 15  4  0
 11 26  1  0
 13 22  4  0
 16 19  1  0
 16 20  2  0
 17 19  4  0
 17 21  4  0
 19 22  4  0
 20 28  1  0
 25 27  4  0
M  END
$$$$

 Created by Python create_sdf_string function

 28 30  0  0  0  0  0  0  0  0999 V2000
   11.4592   11.2893   18.7941 C   0  0  0  0  0  0  0  0  0  0  0  0
    3.4202    7.9009   20.3866 C   0  0  0  0  0  0  0  0  0  0  0  0
   13.5280   10.3522   19.3586 C   0  0  0  0  0  0  0  0  0  0  0  0
    9.6923    5.6468   22.7891 C   0  0  0  0  0  0  0  0  0  0  0  0
   11.7756   10.2554   20.8841 N   0  0  0  0  0  0  0  0  0  0  0  0
    8.9876   11.9370   19.8757 O   0  0  0  0  0  0  0  0  0  0  0  0
    6.0167    8.4478   21.1089 C   0  0  0  0  0  0  0  0  0  0  0  0
   11.0002   10.8890   20.0262 C   0  0  0  0  0  0  0  0  0  0  0  0
    2.1721    7.7393   20.0315 O   0  0  0  0  0  0  0  0  0  0  0  0
    9.1107   10.3880   21.3769 N   0  0  0  0  0  0  0  0  0  0  0  0
    3.9102    9.2008   20.3124 C   0  0  0  0  0  0  0  0  0  0  0  0
   12.7292   10.9960   18.4597 C   0  0  0  0  0  0  0  0  0  0  0  0
    9.3798    6.6793   23.6625 C   0  0  0  0  0  0  0  0  0  0  0  0
   14.7425   10.0739   19.0802 O   0  0  0  0  0  0  0  0  0  0  0  0
    5.1894    9.4673   20.7118 C   0  0  0  0  0  0  0  0  0  0  0  0
    7.3773    8.8224   21.4870 C   0  0  0  0  0  0  0  0  0  0  0  0
    8.4391    6.6439   21.0235 C   0  0  0  0  0  0  0  0  0  0  0  0
    9.6494   11.1353   20.4167 C   0  0  0  0  0  0  0  0  0  0  0  0
    8.1431    7.6829   21.9046 C   0  0  0  0  0  0  0  0  0  0  0  0
    7.7796   10.1314   21.5115 N   0  0  0  0  0  0  0  0  0  0  0  0
    9.2768    5.6183   21.4437 C   0  0  0  0  0  0  0  0  0  0  0  0
    8.6315    7.7322   23.1768 C   0  0  0  0  0  0  0  0  0  0  0  0
   13.0537    9.9821   20.5781 C   0  0  0  0  0  0  0  0  0  0  0  0
   10.3850    4.6575   23.2386 O   0  0  0  0  0  0  0  0  0  0  0  0
    4.2069    6.8450   20.7994 C   0  0  0  0  0  0  0  0  0  0  0  0
    3.0726   10.1043   19.8522 O   0  0  0  0  0  0  0  0  0  0  0  0
    5.5057    7.1196   21.1155 C   0  0  0  0  0  0  0  0  0  0  0  0
    7.0367   11.0229   21.9948 O   0  0  0  0  0  0  0  0  0  0  0  0
  1  8  4  0
  1 12  4  0
  2  9  1  0
  2 11  4  0
  2 25  4  0
  3 12  4  0
  3 14  1  0
  3 23  4  0
  4 13  4  0
  4 21  4  0
  4 24  1  0
  5  8  4  0
  5 23  4  0
  6 18  2  0
  7 15  4  0
  7 16  1  0
  7 27  4  0
  8 18  1  0
 10 18  1  0
 10 20  1  0
 11 15  4  0
 11 26  1  0
 13 22  4  0
 16 19  1  0
 16 20  2  0
 17 19  4  0
 17 21  4  0
 19 22  4  0
 20 28  1  0
 25 27  4  0
M  END
$$$$

 Created by Python create_sdf_string function

 28 30  0  0  0  0  0  0  0  0999 V2000
   11.4592   11.2893   18.7941 C   0  0  0  0  0  0  0  0  0  0  0  0
    3.4202    7.9009   20.3866 C   0  0  0  0  0  0  0  0  0  0  0  0
   13.5280   10.3522   19.3586 C   0  0  0  0  0  0  0  0  0  0  0  0
    9.6923    5.6468   22.7891 C   0  0  0  0  0  0  0  0  0  0  0  0
   11.7756   10.2554   20.8841 N   0  0  0  0  0  0  0  0  0  0  0  0
    8.9876   11.9370   19.8757 O   0  0  0  0  0  0  0  0  0  0  0  0
    6.0167    8.4478   21.1089 C   0  0  0  0  0  0  0  0  0  0  0  0
   11.0002   10.8890   20.0262 C   0  0  0  0  0  0  0  0  0  0  0  0
    2.1721    7.7393   20.0315 O   0  0  0  0  0  0  0  0  0  0  0  0
    9.1107   10.3880   21.3769 N   0  0  0  0  0  0  0  0  0  0  0  0
    3.9102    9.2008   20.3124 C   0  0  0  0  0  0  0  0  0  0  0  0
   12.7292   10.9960   18.4597 C   0  0  0  0  0  0  0  0  0  0  0  0
    9.3798    6.6793   23.6625 C   0  0  0  0  0  0  0  0  0  0  0  0
   14.7425   10.0739   19.0802 O   0  0  0  0  0  0  0  0  0  0  0  0
    5.1894    9.4673   20.7118 C   0  0  0  0  0  0  0  0  0  0  0  0
    7.3773    8.8224   21.4870 C   0  0  0  0  0  0  0  0  0  0  0  0
    8.4391    6.6439   21.0235 C   0  0  0  0  0  0  0  0  0  0  0  0
    9.6494   11.1353   20.4167 C   0  0  0  0  0  0  0  0  0  0  0  0
    8.1431    7.6829   21.9046 C   0  0  0  0  0  0  0  0  0  0  0  0
    7.7796   10.1314   21.5115 N   0  0  0  0  0  0  0  0  0  0  0  0
    9.2768    5.6183   21.4437 C   0  0  0  0  0  0  0  0  0  0  0  0
    8.6315    7.7322   23.1768 C   0  0  0  0  0  0  0  0  0  0  0  0
   13.0537    9.9821   20.5781 C   0  0  0  0  0  0  0  0  0  0  0  0
   10.3850    4.6575   23.2386 O   0  0  0  0  0  0  0  0  0  0  0  0
    4.2069    6.8450   20.7994 C   0  0  0  0  0  0  0  0  0  0  0  0
    3.0726   10.1043   19.8522 O   0  0  0  0  0  0  0  0  0  0  0  0
    5.5057    7.1196   21.1155 C   0  0  0  0  0  0  0  0  0  0  0  0
    7.0367   11.0229   21.9948 O   0  0  0  0  0  0  0  0  0  0  0  0
  1  8  4  0
  1 12  4  0
  2  9  1  0
  2 11  4  0
  2 25  4  0
  3 12  4  0
  3 14  1  0
  3 23  4  0
  4 13  4  0
  4 21  4  0
  4 24  1  0
  5  8  4  0
  5 23  4  0
  6 18  2  0
  7 15  4  0
  7 16  1  0
  7 27  4  0
  8 18  1  0
 10 18  1  0
 10 20  1  0
 11 15  4  0
 11 26  1  0
 13 22  4  0
 16 19  1  0
 16 20  2  0
 17 19  4  0
 17 21  4  0
 19 22  4  0
 20 28  1  0
 25 27  4  0
M  END
$$$$

 Created by Python create_sdf_string function

 28 30  0  0  0  0  0  0  0  0999 V2000
   11.4592   11.2893   18.7941 C   0  0  0  0  0  0  0  0  0  0  0  0
    3.4202    7.9009   20.3866 C   0  0  0  0  0  0  0  0  0  0  0  0
   13.5280   10.3522   19.3586 C   0  0  0  0  0  0  0  0  0  0  0  0
    9.6923    5.6468   22.7891 C   0  0  0  0  0  0  0  0  0  0  0  0
   11.7756   10.2554   20.8841 N   0  0  0  0  0  0  0  0  0  0  0  0
    8.9876   11.9370   19.8757 O   0  0  0  0  0  0  0  0  0  0  0  0
    6.0167    8.4478   21.1089 C   0  0  0  0  0  0  0  0  0  0  0  0
   11.0002   10.8890   20.0262 C   0  0  0  0  0  0  0  0  0  0  0  0
    2.1721    7.7393   20.0315 O   0  0  0  0  0  0  0  0  0  0  0  0
    9.1107   10.3880   21.3769 N   0  0  0  0  0  0  0  0  0  0  0  0
    3.9102    9.2008   20.3124 C   0  0  0  0  0  0  0  0  0  0  0  0
   12.7292   10.9960   18.4597 C   0  0  0  0  0  0  0  0  0  0  0  0
    9.3798    6.6793   23.6625 C   0  0  0  0  0  0  0  0  0  0  0  0
   14.7425   10.0739   19.0802 O   0  0  0  0  0  0  0  0  0  0  0  0
    5.1894    9.4673   20.7118 C   0  0  0  0  0  0  0  0  0  0  0  0
    7.3773    8.8224   21.4870 C   0  0  0  0  0  0  0  0  0  0  0  0
    8.4391    6.6439   21.0235 C   0  0  0  0  0  0  0  0  0  0  0  0
    9.6494   11.1353   20.4167 C   0  0  0  0  0  0  0  0  0  0  0  0
    8.1431    7.6829   21.9046 C   0  0  0  0  0  0  0  0  0  0  0  0
    7.7796   10.1314   21.5115 N   0  0  0  0  0  0  0  0  0  0  0  0
    9.2768    5.6183   21.4437 C   0  0  0  0  0  0  0  0  0  0  0  0
    8.6315    7.7322   23.1768 C   0  0  0  0  0  0  0  0  0  0  0  0
   13.0537    9.9821   20.5781 C   0  0  0  0  0  0  0  0  0  0  0  0
   10.3850    4.6575   23.2386 O   0  0  0  0  0  0  0  0  0  0  0  0
    4.2069    6.8450   20.7994 C   0  0  0  0  0  0  0  0  0  0  0  0
    3.0726   10.1043   19.8522 O   0  0  0  0  0  0  0  0  0  0  0  0
    5.5057    7.1196   21.1155 C   0  0  0  0  0  0  0  0  0  0  0  0
    7.0367   11.0229   21.9948 O   0  0  0  0  0  0  0  0  0  0  0  0
  1  8  4  0
  1 12  4  0
  2  9  1  0
  2 11  4  0
  2 25  4  0
  3 12  4  0
  3 14  1  0
  3 23  4  0
  4 13  4  0
  4 21  4  0
  4 24  1  0
  5  8  4  0
  5 23  4  0
  6 18  2  0
  7 15  4  0
  7 16  1  0
  7 27  4  0
  8 18  1  0
 10 18  1  0
 10 20  1  0
 11 15  4  0
 11 26  1  0
 13 22  4  0
 16 19  1  0
 16 20  2  0
 17 19  4  0
 17 21  4  0
 19 22  4  0
 20 28  1  0
 25 27  4  0
M  END
$$$$

 Created by Python create_sdf_string function

 28 30  0  0  0  0  0  0  0  0999 V2000
   11.4592   11.2893   18.7941 C   0  0  0  0  0  0  0  0  0  0  0  0
    3.4202    7.9009   20.3866 C   0  0  0  0  0  0  0  0  0  0  0  0
   13.5280   10.3522   19.3586 C   0  0  0  0  0  0  0  0  0  0  0  0
    9.6923    5.6468   22.7891 C   0  0  0  0  0  0  0  0  0  0  0  0
   11.7756   10.2554   20.8841 N   0  0  0  0  0  0  0  0  0  0  0  0
    8.9876   11.9370   19.8757 O   0  0  0  0  0  0  0  0  0  0  0  0
    6.0167    8.4478   21.1089 C   0  0  0  0  0  0  0  0  0  0  0  0
   11.0002   10.8890   20.0262 C   0  0  0  0  0  0  0  0  0  0  0  0
    2.1721    7.7393   20.0315 O   0  0  0  0  0  0  0  0  0  0  0  0
    9.1107   10.3880   21.3769 N   0  0  0  0  0  0  0  0  0  0  0  0
    3.9102    9.2008   20.3124 C   0  0  0  0  0  0  0  0  0  0  0  0
   12.7292   10.9960   18.4597 C   0  0  0  0  0  0  0  0  0  0  0  0
    9.3798    6.6793   23.6625 C   0  0  0  0  0  0  0  0  0  0  0  0
   14.7425   10.0739   19.0802 O   0  0  0  0  0  0  0  0  0  0  0  0
    5.1894    9.4673   20.7118 C   0  0  0  0  0  0  0  0  0  0  0  0
    7.3773    8.8224   21.4870 C   0  0  0  0  0  0  0  0  0  0  0  0
    8.4391    6.6439   21.0235 C   0  0  0  0  0  0  0  0  0  0  0  0
    9.6494   11.1353   20.4167 C   0  0  0  0  0  0  0  0  0  0  0  0
    8.1431    7.6829   21.9046 C   0  0  0  0  0  0  0  0  0  0  0  0
    7.7796   10.1314   21.5115 N   0  0  0  0  0  0  0  0  0  0  0  0
    9.2768    5.6183   21.4437 C   0  0  0  0  0  0  0  0  0  0  0  0
    8.6315    7.7322   23.1768 C   0  0  0  0  0  0  0  0  0  0  0  0
   13.0537    9.9821   20.5781 C   0  0  0  0  0  0  0  0  0  0  0  0
   10.3850    4.6575   23.2386 O   0  0  0  0  0  0  0  0  0  0  0  0
    4.2069    6.8450   20.7994 C   0  0  0  0  0  0  0  0  0  0  0  0
    3.0726   10.1043   19.8522 O   0  0  0  0  0  0  0  0  0  0  0  0
    5.5057    7.1196   21.1155 C   0  0  0  0  0  0  0  0  0  0  0  0
    7.0367   11.0229   21.9948 O   0  0  0  0  0  0  0  0  0  0  0  0
  1  8  4  0
  1 12  4  0
  2  9  1  0
  2 11  4  0
  2 25  4  0
  3 12  4  0
  3 14  1  0
  3 23  4  0
  4 13  4  0
  4 21  4  0
  4 24  1  0
  5  8  4  0
  5 23  4  0
  6 18  2  0
  7 15  4  0
  7 16  1  0
  7 27  4  0
  8 18  1  0
 10 18  1  0
 10 20  1  0
 11 15  4  0
 11 26  1  0
 13 22  4  0
 16 19  1  0
 16 20  2  0
 17 19  4  0
 17 21  4  0
 19 22  4  0
 20 28  1  0
 25 27  4  0
M  END
$$$$

 Created by Python create_sdf_string function

 28 30  0  0  0  0  0  0  0  0999 V2000
   11.4592   11.2893   18.7941 C   0  0  0  0  0  0  0  0  0  0  0  0
    3.4202    7.9009   20.3866 C   0  0  0  0  0  0  0  0  0  0  0  0
   13.5280   10.3522   19.3586 C   0  0  0  0  0  0  0  0  0  0  0  0
    9.6923    5.6468   22.7891 C   0  0  0  0  0  0  0  0  0  0  0  0
   11.7756   10.2554   20.8841 N   0  0  0  0  0  0  0  0  0  0  0  0
    8.9876   11.9370   19.8757 O   0  0  0  0  0  0  0  0  0  0  0  0
    6.0167    8.4478   21.1089 C   0  0  0  0  0  0  0  0  0  0  0  0
   11.0002   10.8890   20.0262 C   0  0  0  0  0  0  0  0  0  0  0  0
    2.1721    7.7393   20.0315 O   0  0  0  0  0  0  0  0  0  0  0  0
    9.1107   10.3880   21.3769 N   0  0  0  0  0  0  0  0  0  0  0  0
    3.9102    9.2008   20.3124 C   0  0  0  0  0  0  0  0  0  0  0  0
   12.7292   10.9960   18.4597 C   0  0  0  0  0  0  0  0  0  0  0  0
    9.3798    6.6793   23.6625 C   0  0  0  0  0  0  0  0  0  0  0  0
   14.7425   10.0739   19.0802 O   0  0  0  0  0  0  0  0  0  0  0  0
    5.1894    9.4673   20.7118 C   0  0  0  0  0  0  0  0  0  0  0  0
    7.3773    8.8224   21.4870 C   0  0  0  0  0  0  0  0  0  0  0  0
    8.4391    6.6439   21.0235 C   0  0  0  0  0  0  0  0  0  0  0  0
    9.6494   11.1353   20.4167 C   0  0  0  0  0  0  0  0  0  0  0  0
    8.1431    7.6829   21.9046 C   0  0  0  0  0  0  0  0  0  0  0  0
    7.7796   10.1314   21.5115 N   0  0  0  0  0  0  0  0  0  0  0  0
    9.2768    5.6183   21.4437 C   0  0  0  0  0  0  0  0  0  0  0  0
    8.6315    7.7322   23.1768 C   0  0  0  0  0  0  0  0  0  0  0  0
   13.0537    9.9821   20.5781 C   0  0  0  0  0  0  0  0  0  0  0  0
   10.3850    4.6575   23.2386 O   0  0  0  0  0  0  0  0  0  0  0  0
    4.2069    6.8450   20.7994 C   0  0  0  0  0  0  0  0  0  0  0  0
    3.0726   10.1043   19.8522 O   0  0  0  0  0  0  0  0  0  0  0  0
    5.5057    7.1196   21.1155 C   0  0  0  0  0  0  0  0  0  0  0  0
    7.0367   11.0229   21.9948 O   0  0  0  0  0  0  0  0  0  0  0  0
  1  8  4  0
  1 12  4  0
  2  9  1  0
  2 11  4  0
  2 25  4  0
  3 12  4  0
  3 14  1  0
  3 23  4  0
  4 13  4  0
  4 21  4  0
  4 24  1  0
  5  8  4  0
  5 23  4  0
  6 18  2  0
  7 15  4  0
  7 16  1  0
  7 27  4  0
  8 18  1  0
 10 18  1  0
 10 20  1  0
 11 15  4  0
 11 26  1  0
 13 22  4  0
 16 19  1  0
 16 20  2  0
 17 19  4  0
 17 21  4  0
 19 22  4  0
 20 28  1  0
 25 27  4  0
M  END
$$$$

 Created by Python create_sdf_string function

 28 30  0  0  0  0  0  0  0  0999 V2000
   11.4592   11.2893   18.7941 C   0  0  0  0  0  0  0  0  0  0  0  0
    3.4202    7.9009   20.3866 C   0  0  0  0  0  0  0  0  0  0  0  0
   13.5280   10.3522   19.3586 C   0  0  0  0  0  0  0  0  0  0  0  0
    9.6923    5.6468   22.7891 C   0  0  0  0  0  0  0  0  0  0  0  0
   11.7756   10.2554   20.8841 N   0  0  0  0  0  0  0  0  0  0  0  0
    8.9876   11.9370   19.8757 O   0  0  0  0  0  0  0  0  0  0  0  0
    6.0167    8.4478   21.1089 C   0  0  0  0  0  0  0  0  0  0  0  0
   11.0002   10.8890   20.0262 C   0  0  0  0  0  0  0  0  0  0  0  0
    2.1721    7.7393   20.0315 O   0  0  0  0  0  0  0  0  0  0  0  0
    9.1107   10.3880   21.3769 N   0  0  0  0  0  0  0  0  0  0  0  0
    3.9102    9.2008   20.3124 C   0  0  0  0  0  0  0  0  0  0  0  0
   12.7292   10.9960   18.4597 C   0  0  0  0  0  0  0  0  0  0  0  0
    9.3798    6.6793   23.6625 C   0  0  0  0  0  0  0  0  0  0  0  0
   14.7425   10.0739   19.0802 O   0  0  0  0  0  0  0  0  0  0  0  0
    5.1894    9.4673   20.7118 C   0  0  0  0  0  0  0  0  0  0  0  0
    7.3773    8.8224   21.4870 C   0  0  0  0  0  0  0  0  0  0  0  0
    8.4391    6.6439   21.0235 C   0  0  0  0  0  0  0  0  0  0  0  0
    9.6494   11.1353   20.4167 C   0  0  0  0  0  0  0  0  0  0  0  0
    8.1431    7.6829   21.9046 C   0  0  0  0  0  0  0  0  0  0  0  0
    7.7796   10.1314   21.5115 N   0  0  0  0  0  0  0  0  0  0  0  0
    9.2768    5.6183   21.4437 C   0  0  0  0  0  0  0  0  0  0  0  0
    8.6315    7.7322   23.1768 C   0  0  0  0  0  0  0  0  0  0  0  0
   13.0537    9.9821   20.5781 C   0  0  0  0  0  0  0  0  0  0  0  0
   10.3850    4.6575   23.2386 O   0  0  0  0  0  0  0  0  0  0  0  0
    4.2069    6.8450   20.7994 C   0  0  0  0  0  0  0  0  0  0  0  0
    3.0726   10.1043   19.8522 O   0  0  0  0  0  0  0  0  0  0  0  0
    5.5057    7.1196   21.1155 C   0  0  0  0  0  0  0  0  0  0  0  0
    7.0367   11.0229   21.9948 O   0  0  0  0  0  0  0  0  0  0  0  0
  1  8  4  0
  1 12  4  0
  2  9  1  0
  2 11  4  0
  2 25  4  0
  3 12  4  0
  3 14  1  0
  3 23  4  0
  4 13  4  0
  4 21  4  0
  4 24  1  0
  5  8  4  0
  5 23  4  0
  6 18  2  0
  7 15  4  0
  7 16  1  0
  7 27  4  0
  8 18  1  0
 10 18  1  0
 10 20  1  0
 11 15  4  0
 11 26  1  0
 13 22  4  0
 16 19  1  0
 16 20  2  0
 17 19  4  0
 17 21  4  0
 19 22  4  0
 20 28  1  0
 25 27  4  0
M  END
$$$$

 Created by Python create_sdf_string function

 28 30  0  0  0  0  0  0  0  0999 V2000
   11.4592   11.2893   18.7941 C   0  0  0  0  0  0  0  0  0  0  0  0
    3.4202    7.9009   20.3866 C   0  0  0  0  0  0  0  0  0  0  0  0
   13.5280   10.3522   19.3586 C   0  0  0  0  0  0  0  0  0  0  0  0
    9.6923    5.6468   22.7891 C   0  0  0  0  0  0  0  0  0  0  0  0
   11.7756   10.2554   20.8841 N   0  0  0  0  0  0  0  0  0  0  0  0
    8.9876   11.9370   19.8757 O   0  0  0  0  0  0  0  0  0  0  0  0
    6.0167    8.4478   21.1089 C   0  0  0  0  0  0  0  0  0  0  0  0
   11.0002   10.8890   20.0262 C   0  0  0  0  0  0  0  0  0  0  0  0
    2.1721    7.7393   20.0315 O   0  0  0  0  0  0  0  0  0  0  0  0
    9.1107   10.3880   21.3769 N   0  0  0  0  0  0  0  0  0  0  0  0
    3.9102    9.2008   20.3124 C   0  0  0  0  0  0  0  0  0  0  0  0
   12.7292   10.9960   18.4597 C   0  0  0  0  0  0  0  0  0  0  0  0
    9.3798    6.6793   23.6625 C   0  0  0  0  0  0  0  0  0  0  0  0
   14.7425   10.0739   19.0802 O   0  0  0  0  0  0  0  0  0  0  0  0
    5.1894    9.4673   20.7118 C   0  0  0  0  0  0  0  0  0  0  0  0
    7.3773    8.8224   21.4870 C   0  0  0  0  0  0  0  0  0  0  0  0
    8.4391    6.6439   21.0235 C   0  0  0  0  0  0  0  0  0  0  0  0
    9.6494   11.1353   20.4167 C   0  0  0  0  0  0  0  0  0  0  0  0
    8.1431    7.6829   21.9046 C   0  0  0  0  0  0  0  0  0  0  0  0
    7.7796   10.1314   21.5115 N   0  0  0  0  0  0  0  0  0  0  0  0
    9.2768    5.6183   21.4437 C   0  0  0  0  0  0  0  0  0  0  0  0
    8.6315    7.7322   23.1768 C   0  0  0  0  0  0  0  0  0  0  0  0
   13.0537    9.9821   20.5781 C   0  0  0  0  0  0  0  0  0  0  0  0
   10.3850    4.6575   23.2386 O   0  0  0  0  0  0  0  0  0  0  0  0
    4.2069    6.8450   20.7994 C   0  0  0  0  0  0  0  0  0  0  0  0
    3.0726   10.1043   19.8522 O   0  0  0  0  0  0  0  0  0  0  0  0
    5.5057    7.1196   21.1155 C   0  0  0  0  0  0  0  0  0  0  0  0
    7.0367   11.0229   21.9948 O   0  0  0  0  0  0  0  0  0  0  0  0
  1  8  4  0
  1 12  4  0
  2  9  1  0
  2 11  4  0
  2 25  4  0
  3 12  4  0
  3 14  1  0
  3 23  4  0
  4 13  4  0
  4 21  4  0
  4 24  1  0
  5  8  4  0
  5 23  4  0
  6 18  2  0
  7 15  4  0
  7 16  1  0
  7 27  4  0
  8 18  1  0
 10 18  1  0
 10 20  1  0
 11 15  4  0
 11 26  1  0
 13 22  4  0
 16 19  1  0
 16 20  2  0
 17 19  4  0
 17 21  4  0
 19 22  4  0
 20 28  1  0
 25 27  4  0
M  END
$$$$

 Created by Python create_sdf_string function

 28 30  0  0  0  0  0  0  0  0999 V2000
   11.4592   11.2893   18.7941 C   0  0  0  0  0  0  0  0  0  0  0  0
    3.4202    7.9009   20.3866 C   0  0  0  0  0  0  0  0  0  0  0  0
   13.5280   10.3522   19.3586 C   0  0  0  0  0  0  0  0  0  0  0  0
    9.6923    5.6468   22.7891 C   0  0  0  0  0  0  0  0  0  0  0  0
   11.7756   10.2554   20.8841 N   0  0  0  0  0  0  0  0  0  0  0  0
    8.9876   11.9370   19.8757 O   0  0  0  0  0  0  0  0  0  0  0  0
    6.0167    8.4478   21.1089 C   0  0  0  0  0  0  0  0  0  0  0  0
   11.0002   10.8890   20.0262 C   0  0  0  0  0  0  0  0  0  0  0  0
    2.1721    7.7393   20.0315 O   0  0  0  0  0  0  0  0  0  0  0  0
    9.1107   10.3880   21.3769 N   0  0  0  0  0  0  0  0  0  0  0  0
    3.9102    9.2008   20.3124 C   0  0  0  0  0  0  0  0  0  0  0  0
   12.7292   10.9960   18.4597 C   0  0  0  0  0  0  0  0  0  0  0  0
    9.3798    6.6793   23.6625 C   0  0  0  0  0  0  0  0  0  0  0  0
   14.7425   10.0739   19.0802 O   0  0  0  0  0  0  0  0  0  0  0  0
    5.1894    9.4673   20.7118 C   0  0  0  0  0  0  0  0  0  0  0  0
    7.3773    8.8224   21.4870 C   0  0  0  0  0  0  0  0  0  0  0  0
    8.4391    6.6439   21.0235 C   0  0  0  0  0  0  0  0  0  0  0  0
    9.6494   11.1353   20.4167 C   0  0  0  0  0  0  0  0  0  0  0  0
    8.1431    7.6829   21.9046 C   0  0  0  0  0  0  0  0  0  0  0  0
    7.7796   10.1314   21.5115 N   0  0  0  0  0  0  0  0  0  0  0  0
    9.2768    5.6183   21.4437 C   0  0  0  0  0  0  0  0  0  0  0  0
    8.6315    7.7322   23.1768 C   0  0  0  0  0  0  0  0  0  0  0  0
   13.0537    9.9821   20.5781 C   0  0  0  0  0  0  0  0  0  0  0  0
   10.3850    4.6575   23.2386 O   0  0  0  0  0  0  0  0  0  0  0  0
    4.2069    6.8450   20.7994 C   0  0  0  0  0  0  0  0  0  0  0  0
    3.0726   10.1043   19.8522 O   0  0  0  0  0  0  0  0  0  0  0  0
    5.5057    7.1196   21.1155 C   0  0  0  0  0  0  0  0  0  0  0  0
    7.0367   11.0229   21.9948 O   0  0  0  0  0  0  0  0  0  0  0  0
  1  8  4  0
  1 12  4  0
  2  9  1  0
  2 11  4  0
  2 25  4  0
  3 12  4  0
  3 14  1  0
  3 23  4  0
  4 13  4  0
  4 21  4  0
  4 24  1  0
  5  8  4  0
  5 23  4  0
  6 18  2  0
  7 15  4  0
  7 16  1  0
  7 27  4  0
  8 18  1  0
 10 18  1  0
 10 20  1  0
 11 15  4  0
 11 26  1  0
 13 22  4  0
 16 19  1  0
 16 20  2  0
 17 19  4  0
 17 21  4  0
 19 22  4  0
 20 28  1  0
 25 27  4  0
M  END
$$$$

 Created by Python create_sdf_string function

 28 30  0  0  0  0  0  0  0  0999 V2000
   11.4592   11.2893   18.7941 C   0  0  0  0  0  0  0  0  0  0  0  0
    3.4202    7.9009   20.3866 C   0  0  0  0  0  0  0  0  0  0  0  0
   13.5280   10.3522   19.3586 C   0  0  0  0  0  0  0  0  0  0  0  0
    9.6923    5.6468   22.7891 C   0  0  0  0  0  0  0  0  0  0  0  0
   11.7756   10.2554   20.8841 N   0  0  0  0  0  0  0  0  0  0  0  0
    8.9876   11.9370   19.8757 O   0  0  0  0  0  0  0  0  0  0  0  0
    6.0167    8.4478   21.1089 C   0  0  0  0  0  0  0  0  0  0  0  0
   11.0002   10.8890   20.0262 C   0  0  0  0  0  0  0  0  0  0  0  0
    2.1721    7.7393   20.0315 O   0  0  0  0  0  0  0  0  0  0  0  0
    9.1107   10.3880   21.3769 N   0  0  0  0  0  0  0  0  0  0  0  0
    3.9102    9.2008   20.3124 C   0  0  0  0  0  0  0  0  0  0  0  0
   12.7292   10.9960   18.4597 C   0  0  0  0  0  0  0  0  0  0  0  0
    9.3798    6.6793   23.6625 C   0  0  0  0  0  0  0  0  0  0  0  0
   14.7425   10.0739   19.0802 O   0  0  0  0  0  0  0  0  0  0  0  0
    5.1894    9.4673   20.7118 C   0  0  0  0  0  0  0  0  0  0  0  0
    7.3773    8.8224   21.4870 C   0  0  0  0  0  0  0  0  0  0  0  0
    8.4391    6.6439   21.0235 C   0  0  0  0  0  0  0  0  0  0  0  0
    9.6494   11.1353   20.4167 C   0  0  0  0  0  0  0  0  0  0  0  0
    8.1431    7.6829   21.9046 C   0  0  0  0  0  0  0  0  0  0  0  0
    7.7796   10.1314   21.5115 N   0  0  0  0  0  0  0  0  0  0  0  0
    9.2768    5.6183   21.4437 C   0  0  0  0  0  0  0  0  0  0  0  0
    8.6315    7.7322   23.1768 C   0  0  0  0  0  0  0  0  0  0  0  0
   13.0537    9.9821   20.5781 C   0  0  0  0  0  0  0  0  0  0  0  0
   10.3850    4.6575   23.2386 O   0  0  0  0  0  0  0  0  0  0  0  0
    4.2069    6.8450   20.7994 C   0  0  0  0  0  0  0  0  0  0  0  0
    3.0726   10.1043   19.8522 O   0  0  0  0  0  0  0  0  0  0  0  0
    5.5057    7.1196   21.1155 C   0  0  0  0  0  0  0  0  0  0  0  0
    7.0367   11.0229   21.9948 O   0  0  0  0  0  0  0  0  0  0  0  0
  1  8  4  0
  1 12  4  0
  2  9  1  0
  2 11  4  0
  2 25  4  0
  3 12  4  0
  3 14  1  0
  3 23  4  0
  4 13  4  0
  4 21  4  0
  4 24  1  0
  5  8  4  0
  5 23  4  0
  6 18  2  0
  7 15  4  0
  7 16  1  0
  7 27  4  0
  8 18  1  0
 10 18  1  0
 10 20  1  0
 11 15  4  0
 11 26  1  0
 13 22  4  0
 16 19  1  0
 16 20  2  0
 17 19  4  0
 17 21  4  0
 19 22  4  0
 20 28  1  0
 25 27  4  0
M  END
$$$$

 Created by Python create_sdf_string function

 28 30  0  0  0  0  0  0  0  0999 V2000
   11.4592   11.2893   18.7941 C   0  0  0  0  0  0  0  0  0  0  0  0
    3.4202    7.9009   20.3866 C   0  0  0  0  0  0  0  0  0  0  0  0
   13.5280   10.3522   19.3586 C   0  0  0  0  0  0  0  0  0  0  0  0
    9.6923    5.6468   22.7891 C   0  0  0  0  0  0  0  0  0  0  0  0
   11.7756   10.2554   20.8841 N   0  0  0  0  0  0  0  0  0  0  0  0
    8.9876   11.9370   19.8757 O   0  0  0  0  0  0  0  0  0  0  0  0
    6.0167    8.4478   21.1089 C   0  0  0  0  0  0  0  0  0  0  0  0
   11.0002   10.8890   20.0262 C   0  0  0  0  0  0  0  0  0  0  0  0
    2.1721    7.7393   20.0315 O   0  0  0  0  0  0  0  0  0  0  0  0
    9.1107   10.3880   21.3769 N   0  0  0  0  0  0  0  0  0  0  0  0
    3.9102    9.2008   20.3124 C   0  0  0  0  0  0  0  0  0  0  0  0
   12.7292   10.9960   18.4597 C   0  0  0  0  0  0  0  0  0  0  0  0
    9.3798    6.6793   23.6625 C   0  0  0  0  0  0  0  0  0  0  0  0
   14.7425   10.0739   19.0802 O   0  0  0  0  0  0  0  0  0  0  0  0
    5.1894    9.4673   20.7118 C   0  0  0  0  0  0  0  0  0  0  0  0
    7.3773    8.8224   21.4870 C   0  0  0  0  0  0  0  0  0  0  0  0
    8.4391    6.6439   21.0235 C   0  0  0  0  0  0  0  0  0  0  0  0
    9.6494   11.1353   20.4167 C   0  0  0  0  0  0  0  0  0  0  0  0
    8.1431    7.6829   21.9046 C   0  0  0  0  0  0  0  0  0  0  0  0
    7.7796   10.1314   21.5115 N   0  0  0  0  0  0  0  0  0  0  0  0
    9.2768    5.6183   21.4437 C   0  0  0  0  0  0  0  0  0  0  0  0
    8.6315    7.7322   23.1768 C   0  0  0  0  0  0  0  0  0  0  0  0
   13.0537    9.9821   20.5781 C   0  0  0  0  0  0  0  0  0  0  0  0
   10.3850    4.6575   23.2386 O   0  0  0  0  0  0  0  0  0  0  0  0
    4.2069    6.8450   20.7994 C   0  0  0  0  0  0  0  0  0  0  0  0
    3.0726   10.1043   19.8522 O   0  0  0  0  0  0  0  0  0  0  0  0
    5.5057    7.1196   21.1155 C   0  0  0  0  0  0  0  0  0  0  0  0
    7.0367   11.0229   21.9948 O   0  0  0  0  0  0  0  0  0  0  0  0
  1  8  4  0
  1 12  4  0
  2  9  1  0
  2 11  4  0
  2 25  4  0
  3 12  4  0
  3 14  1  0
  3 23  4  0
  4 13  4  0
  4 21  4  0
  4 24  1  0
  5  8  4  0
  5 23  4  0
  6 18  2  0
  7 15  4  0
  7 16  1  0
  7 27  4  0
  8 18  1  0
 10 18  1  0
 10 20  1  0
 11 15  4  0
 11 26  1  0
 13 22  4  0
 16 19  1  0
 16 20  2  0
 17 19  4  0
 17 21  4  0
 19 22  4  0
 20 28  1  0
 25 27  4  0
M  END
$$$$

 Created by Python create_sdf_string function

 28 30  0  0  0  0  0  0  0  0999 V2000
   11.4592   11.2893   18.7941 C   0  0  0  0  0  0  0  0  0  0  0  0
    3.4202    7.9009   20.3866 C   0  0  0  0  0  0  0  0  0  0  0  0
   13.5280   10.3522   19.3586 C   0  0  0  0  0  0  0  0  0  0  0  0
    9.6923    5.6468   22.7891 C   0  0  0  0  0  0  0  0  0  0  0  0
   11.7756   10.2554   20.8841 N   0  0  0  0  0  0  0  0  0  0  0  0
    8.9876   11.9370   19.8757 O   0  0  0  0  0  0  0  0  0  0  0  0
    6.0167    8.4478   21.1089 C   0  0  0  0  0  0  0  0  0  0  0  0
   11.0002   10.8890   20.0262 C   0  0  0  0  0  0  0  0  0  0  0  0
    2.1721    7.7393   20.0315 O   0  0  0  0  0  0  0  0  0  0  0  0
    9.1107   10.3880   21.3769 N   0  0  0  0  0  0  0  0  0  0  0  0
    3.9102    9.2008   20.3124 C   0  0  0  0  0  0  0  0  0  0  0  0
   12.7292   10.9960   18.4597 C   0  0  0  0  0  0  0  0  0  0  0  0
    9.3798    6.6793   23.6625 C   0  0  0  0  0  0  0  0  0  0  0  0
   14.7425   10.0739   19.0802 O   0  0  0  0  0  0  0  0  0  0  0  0
    5.1894    9.4673   20.7118 C   0  0  0  0  0  0  0  0  0  0  0  0
    7.3773    8.8224   21.4870 C   0  0  0  0  0  0  0  0  0  0  0  0
    8.4391    6.6439   21.0235 C   0  0  0  0  0  0  0  0  0  0  0  0
    9.6494   11.1353   20.4167 C   0  0  0  0  0  0  0  0  0  0  0  0
    8.1431    7.6829   21.9046 C   0  0  0  0  0  0  0  0  0  0  0  0
    7.7796   10.1314   21.5115 N   0  0  0  0  0  0  0  0  0  0  0  0
    9.2768    5.6183   21.4437 C   0  0  0  0  0  0  0  0  0  0  0  0
    8.6315    7.7322   23.1768 C   0  0  0  0  0  0  0  0  0  0  0  0
   13.0537    9.9821   20.5781 C   0  0  0  0  0  0  0  0  0  0  0  0
   10.3850    4.6575   23.2386 O   0  0  0  0  0  0  0  0  0  0  0  0
    4.2069    6.8450   20.7994 C   0  0  0  0  0  0  0  0  0  0  0  0
    3.0726   10.1043   19.8522 O   0  0  0  0  0  0  0  0  0  0  0  0
    5.5057    7.1196   21.1155 C   0  0  0  0  0  0  0  0  0  0  0  0
    7.0367   11.0229   21.9948 O   0  0  0  0  0  0  0  0  0  0  0  0
  1  8  4  0
  1 12  4  0
  2  9  1  0
  2 11  4  0
  2 25  4  0
  3 12  4  0
  3 14  1  0
  3 23  4  0
  4 13  4  0
  4 21  4  0
  4 24  1  0
  5  8  4  0
  5 23  4  0
  6 18  2  0
  7 15  4  0
  7 16  1  0
  7 27  4  0
  8 18  1  0
 10 18  1  0
 10 20  1  0
 11 15  4  0
 11 26  1  0
 13 22  4  0
 16 19  1  0
 16 20  2  0
 17 19  4  0
 17 21  4  0
 19 22  4  0
 20 28  1  0
 25 27  4  0
M  END
$$$$

 Created by Python create_sdf_string function

 28 30  0  0  0  0  0  0  0  0999 V2000
   11.4592   11.2893   18.7941 C   0  0  0  0  0  0  0  0  0  0  0  0
    3.4202    7.9009   20.3866 C   0  0  0  0  0  0  0  0  0  0  0  0
   13.5280   10.3522   19.3586 C   0  0  0  0  0  0  0  0  0  0  0  0
    9.6923    5.6468   22.7891 C   0  0  0  0  0  0  0  0  0  0  0  0
   11.7756   10.2554   20.8841 N   0  0  0  0  0  0  0  0  0  0  0  0
    8.9876   11.9370   19.8757 O   0  0  0  0  0  0  0  0  0  0  0  0
    6.0167    8.4478   21.1089 C   0  0  0  0  0  0  0  0  0  0  0  0
   11.0002   10.8890   20.0262 C   0  0  0  0  0  0  0  0  0  0  0  0
    2.1721    7.7393   20.0315 O   0  0  0  0  0  0  0  0  0  0  0  0
    9.1107   10.3880   21.3769 N   0  0  0  0  0  0  0  0  0  0  0  0
    3.9102    9.2008   20.3124 C   0  0  0  0  0  0  0  0  0  0  0  0
   12.7292   10.9960   18.4597 C   0  0  0  0  0  0  0  0  0  0  0  0
    9.3798    6.6793   23.6625 C   0  0  0  0  0  0  0  0  0  0  0  0
   14.7425   10.0739   19.0802 O   0  0  0  0  0  0  0  0  0  0  0  0
    5.1894    9.4673   20.7118 C   0  0  0  0  0  0  0  0  0  0  0  0
    7.3773    8.8224   21.4870 C   0  0  0  0  0  0  0  0  0  0  0  0
    8.4391    6.6439   21.0235 C   0  0  0  0  0  0  0  0  0  0  0  0
    9.6494   11.1353   20.4167 C   0  0  0  0  0  0  0  0  0  0  0  0
    8.1431    7.6829   21.9046 C   0  0  0  0  0  0  0  0  0  0  0  0
    7.7796   10.1314   21.5115 N   0  0  0  0  0  0  0  0  0  0  0  0
    9.2768    5.6183   21.4437 C   0  0  0  0  0  0  0  0  0  0  0  0
    8.6315    7.7322   23.1768 C   0  0  0  0  0  0  0  0  0  0  0  0
   13.0537    9.9821   20.5781 C   0  0  0  0  0  0  0  0  0  0  0  0
   10.3850    4.6575   23.2386 O   0  0  0  0  0  0  0  0  0  0  0  0
    4.2069    6.8450   20.7994 C   0  0  0  0  0  0  0  0  0  0  0  0
    3.0726   10.1043   19.8522 O   0  0  0  0  0  0  0  0  0  0  0  0
    5.5057    7.1196   21.1155 C   0  0  0  0  0  0  0  0  0  0  0  0
    7.0367   11.0229   21.9948 O   0  0  0  0  0  0  0  0  0  0  0  0
  1  8  4  0
  1 12  4  0
  2  9  1  0
  2 11  4  0
  2 25  4  0
  3 12  4  0
  3 14  1  0
  3 23  4  0
  4 13  4  0
  4 21  4  0
  4 24  1  0
  5  8  4  0
  5 23  4  0
  6 18  2  0
  7 15  4  0
  7 16  1  0
  7 27  4  0
  8 18  1  0
 10 18  1  0
 10 20  1  0
 11 15  4  0
 11 26  1  0
 13 22  4  0
 16 19  1  0
 16 20  2  0
 17 19  4  0
 17 21  4  0
 19 22  4  0
 20 28  1  0
 25 27  4  0
M  END
$$$$

 Created by Python create_sdf_string function

 28 30  0  0  0  0  0  0  0  0999 V2000
   11.4592   11.2893   18.7941 C   0  0  0  0  0  0  0  0  0  0  0  0
    3.4202    7.9009   20.3866 C   0  0  0  0  0  0  0  0  0  0  0  0
   13.5280   10.3522   19.3586 C   0  0  0  0  0  0  0  0  0  0  0  0
    9.6923    5.6468   22.7891 C   0  0  0  0  0  0  0  0  0  0  0  0
   11.7756   10.2554   20.8841 N   0  0  0  0  0  0  0  0  0  0  0  0
    8.9876   11.9370   19.8757 O   0  0  0  0  0  0  0  0  0  0  0  0
    6.0167    8.4478   21.1089 C   0  0  0  0  0  0  0  0  0  0  0  0
   11.0002   10.8890   20.0262 C   0  0  0  0  0  0  0  0  0  0  0  0
    2.1721    7.7393   20.0315 O   0  0  0  0  0  0  0  0  0  0  0  0
    9.1107   10.3880   21.3769 N   0  0  0  0  0  0  0  0  0  0  0  0
    3.9102    9.2008   20.3124 C   0  0  0  0  0  0  0  0  0  0  0  0
   12.7292   10.9960   18.4597 C   0  0  0  0  0  0  0  0  0  0  0  0
    9.3798    6.6793   23.6625 C   0  0  0  0  0  0  0  0  0  0  0  0
   14.7425   10.0739   19.0802 O   0  0  0  0  0  0  0  0  0  0  0  0
    5.1894    9.4673   20.7118 C   0  0  0  0  0  0  0  0  0  0  0  0
    7.3773    8.8224   21.4870 C   0  0  0  0  0  0  0  0  0  0  0  0
    8.4391    6.6439   21.0235 C   0  0  0  0  0  0  0  0  0  0  0  0
    9.6494   11.1353   20.4167 C   0  0  0  0  0  0  0  0  0  0  0  0
    8.1431    7.6829   21.9046 C   0  0  0  0  0  0  0  0  0  0  0  0
    7.7796   10.1314   21.5115 N   0  0  0  0  0  0  0  0  0  0  0  0
    9.2768    5.6183   21.4437 C   0  0  0  0  0  0  0  0  0  0  0  0
    8.6315    7.7322   23.1768 C   0  0  0  0  0  0  0  0  0  0  0  0
   13.0537    9.9821   20.5781 C   0  0  0  0  0  0  0  0  0  0  0  0
   10.3850    4.6575   23.2386 O   0  0  0  0  0  0  0  0  0  0  0  0
    4.2069    6.8450   20.7994 C   0  0  0  0  0  0  0  0  0  0  0  0
    3.0726   10.1043   19.8522 O   0  0  0  0  0  0  0  0  0  0  0  0
    5.5057    7.1196   21.1155 C   0  0  0  0  0  0  0  0  0  0  0  0
    7.0367   11.0229   21.9948 O   0  0  0  0  0  0  0  0  0  0  0  0
  1  8  4  0
  1 12  4  0
  2  9  1  0
  2 11  4  0
  2 25  4  0
  3 12  4  0
  3 14  1  0
  3 23  4  0
  4 13  4  0
  4 21  4  0
  4 24  1  0
  5  8  4  0
  5 23  4  0
  6 18  2  0
  7 15  4  0
  7 16  1  0
  7 27  4  0
  8 18  1  0
 10 18  1  0
 10 20  1  0
 11 15  4  0
 11 26  1  0
 13 22  4  0
 16 19  1  0
 16 20  2  0
 17 19  4  0
 17 21  4  0
 19 22  4  0
 20 28  1  0
 25 27  4  0
M  END
$$$$

 Created by Python create_sdf_string function

 28 30  0  0  0  0  0  0  0  0999 V2000
   11.4592   11.2893   18.7941 C   0  0  0  0  0  0  0  0  0  0  0  0
    3.4202    7.9009   20.3866 C   0  0  0  0  0  0  0  0  0  0  0  0
   13.5280   10.3522   19.3586 C   0  0  0  0  0  0  0  0  0  0  0  0
    9.6923    5.6468   22.7891 C   0  0  0  0  0  0  0  0  0  0  0  0
   11.7756   10.2554   20.8841 N   0  0  0  0  0  0  0  0  0  0  0  0
    8.9876   11.9370   19.8757 O   0  0  0  0  0  0  0  0  0  0  0  0
    6.0167    8.4478   21.1089 C   0  0  0  0  0  0  0  0  0  0  0  0
   11.0002   10.8890   20.0262 C   0  0  0  0  0  0  0  0  0  0  0  0
    2.1721    7.7393   20.0315 O   0  0  0  0  0  0  0  0  0  0  0  0
    9.1107   10.3880   21.3769 N   0  0  0  0  0  0  0  0  0  0  0  0
    3.9102    9.2008   20.3124 C   0  0  0  0  0  0  0  0  0  0  0  0
   12.7292   10.9960   18.4597 C   0  0  0  0  0  0  0  0  0  0  0  0
    9.3798    6.6793   23.6625 C   0  0  0  0  0  0  0  0  0  0  0  0
   14.7425   10.0739   19.0802 O   0  0  0  0  0  0  0  0  0  0  0  0
    5.1894    9.4673   20.7118 C   0  0  0  0  0  0  0  0  0  0  0  0
    7.3773    8.8224   21.4870 C   0  0  0  0  0  0  0  0  0  0  0  0
    8.4391    6.6439   21.0235 C   0  0  0  0  0  0  0  0  0  0  0  0
    9.6494   11.1353   20.4167 C   0  0  0  0  0  0  0  0  0  0  0  0
    8.1431    7.6829   21.9046 C   0  0  0  0  0  0  0  0  0  0  0  0
    7.7796   10.1314   21.5115 N   0  0  0  0  0  0  0  0  0  0  0  0
    9.2768    5.6183   21.4437 C   0  0  0  0  0  0  0  0  0  0  0  0
    8.6315    7.7322   23.1768 C   0  0  0  0  0  0  0  0  0  0  0  0
   13.0537    9.9821   20.5781 C   0  0  0  0  0  0  0  0  0  0  0  0
   10.3850    4.6575   23.2386 O   0  0  0  0  0  0  0  0  0  0  0  0
    4.2069    6.8450   20.7994 C   0  0  0  0  0  0  0  0  0  0  0  0
    3.0726   10.1043   19.8522 O   0  0  0  0  0  0  0  0  0  0  0  0
    5.5057    7.1196   21.1155 C   0  0  0  0  0  0  0  0  0  0  0  0
    7.0367   11.0229   21.9948 O   0  0  0  0  0  0  0  0  0  0  0  0
  1  8  4  0
  1 12  4  0
  2  9  1  0
  2 11  4  0
  2 25  4  0
  3 12  4  0
  3 14  1  0
  3 23  4  0
  4 13  4  0
  4 21  4  0
  4 24  1  0
  5  8  4  0
  5 23  4  0
  6 18  2  0
  7 15  4  0
  7 16  1  0
  7 27  4  0
  8 18  1  0
 10 18  1  0
 10 20  1  0
 11 15  4  0
 11 26  1  0
 13 22  4  0
 16 19  1  0
 16 20  2  0
 17 19  4  0
 17 21  4  0
 19 22  4  0
 20 28  1  0
 25 27  4  0
M  END
$$$$

 Created by Python create_sdf_string function

 28 30  0  0  0  0  0  0  0  0999 V2000
   11.4592   11.2893   18.7941 C   0  0  0  0  0  0  0  0  0  0  0  0
    3.4202    7.9009   20.3866 C   0  0  0  0  0  0  0  0  0  0  0  0
   13.5280   10.3522   19.3586 C   0  0  0  0  0  0  0  0  0  0  0  0
    9.6923    5.6468   22.7891 C   0  0  0  0  0  0  0  0  0  0  0  0
   11.7756   10.2554   20.8841 N   0  0  0  0  0  0  0  0  0  0  0  0
    8.9876   11.9370   19.8757 O   0  0  0  0  0  0  0  0  0  0  0  0
    6.0167    8.4478   21.1089 C   0  0  0  0  0  0  0  0  0  0  0  0
   11.0002   10.8890   20.0262 C   0  0  0  0  0  0  0  0  0  0  0  0
    2.1721    7.7393   20.0315 O   0  0  0  0  0  0  0  0  0  0  0  0
    9.1107   10.3880   21.3769 N   0  0  0  0  0  0  0  0  0  0  0  0
    3.9102    9.2008   20.3124 C   0  0  0  0  0  0  0  0  0  0  0  0
   12.7292   10.9960   18.4597 C   0  0  0  0  0  0  0  0  0  0  0  0
    9.3798    6.6793   23.6625 C   0  0  0  0  0  0  0  0  0  0  0  0
   14.7425   10.0739   19.0802 O   0  0  0  0  0  0  0  0  0  0  0  0
    5.1894    9.4673   20.7118 C   0  0  0  0  0  0  0  0  0  0  0  0
    7.3773    8.8224   21.4870 C   0  0  0  0  0  0  0  0  0  0  0  0
    8.4391    6.6439   21.0235 C   0  0  0  0  0  0  0  0  0  0  0  0
    9.6494   11.1353   20.4167 C   0  0  0  0  0  0  0  0  0  0  0  0
    8.1431    7.6829   21.9046 C   0  0  0  0  0  0  0  0  0  0  0  0
    7.7796   10.1314   21.5115 N   0  0  0  0  0  0  0  0  0  0  0  0
    9.2768    5.6183   21.4437 C   0  0  0  0  0  0  0  0  0  0  0  0
    8.6315    7.7322   23.1768 C   0  0  0  0  0  0  0  0  0  0  0  0
   13.0537    9.9821   20.5781 C   0  0  0  0  0  0  0  0  0  0  0  0
   10.3850    4.6575   23.2386 O   0  0  0  0  0  0  0  0  0  0  0  0
    4.2069    6.8450   20.7994 C   0  0  0  0  0  0  0  0  0  0  0  0
    3.0726   10.1043   19.8522 O   0  0  0  0  0  0  0  0  0  0  0  0
    5.5057    7.1196   21.1155 C   0  0  0  0  0  0  0  0  0  0  0  0
    7.0367   11.0229   21.9948 O   0  0  0  0  0  0  0  0  0  0  0  0
  1  8  4  0
  1 12  4  0
  2  9  1  0
  2 11  4  0
  2 25  4  0
  3 12  4  0
  3 14  1  0
  3 23  4  0
  4 13  4  0
  4 21  4  0
  4 24  1  0
  5  8  4  0
  5 23  4  0
  6 18  2  0
  7 15  4  0
  7 16  1  0
  7 27  4  0
  8 18  1  0
 10 18  1  0
 10 20  1  0
 11 15  4  0
 11 26  1  0
 13 22  4  0
 16 19  1  0
 16 20  2  0
 17 19  4  0
 17 21  4  0
 19 22  4  0
 20 28  1  0
 25 27  4  0
M  END
$$$$

 Created by Python create_sdf_string function

 28 30  0  0  0  0  0  0  0  0999 V2000
   11.4592   11.2893   18.7941 C   0  0  0  0  0  0  0  0  0  0  0  0
    3.4202    7.9009   20.3866 C   0  0  0  0  0  0  0  0  0  0  0  0
   13.5280   10.3522   19.3586 C   0  0  0  0  0  0  0  0  0  0  0  0
    9.6923    5.6468   22.7891 C   0  0  0  0  0  0  0  0  0  0  0  0
   11.7756   10.2554   20.8841 N   0  0  0  0  0  0  0  0  0  0  0  0
    8.9876   11.9370   19.8757 O   0  0  0  0  0  0  0  0  0  0  0  0
    6.0167    8.4478   21.1089 C   0  0  0  0  0  0  0  0  0  0  0  0
   11.0002   10.8890   20.0262 C   0  0  0  0  0  0  0  0  0  0  0  0
    2.1721    7.7393   20.0315 O   0  0  0  0  0  0  0  0  0  0  0  0
    9.1107   10.3880   21.3769 N   0  0  0  0  0  0  0  0  0  0  0  0
    3.9102    9.2008   20.3124 C   0  0  0  0  0  0  0  0  0  0  0  0
   12.7292   10.9960   18.4597 C   0  0  0  0  0  0  0  0  0  0  0  0
    9.3798    6.6793   23.6625 C   0  0  0  0  0  0  0  0  0  0  0  0
   14.7425   10.0739   19.0802 O   0  0  0  0  0  0  0  0  0  0  0  0
    5.1894    9.4673   20.7118 C   0  0  0  0  0  0  0  0  0  0  0  0
    7.3773    8.8224   21.4870 C   0  0  0  0  0  0  0  0  0  0  0  0
    8.4391    6.6439   21.0235 C   0  0  0  0  0  0  0  0  0  0  0  0
    9.6494   11.1353   20.4167 C   0  0  0  0  0  0  0  0  0  0  0  0
    8.1431    7.6829   21.9046 C   0  0  0  0  0  0  0  0  0  0  0  0
    7.7796   10.1314   21.5115 N   0  0  0  0  0  0  0  0  0  0  0  0
    9.2768    5.6183   21.4437 C   0  0  0  0  0  0  0  0  0  0  0  0
    8.6315    7.7322   23.1768 C   0  0  0  0  0  0  0  0  0  0  0  0
   13.0537    9.9821   20.5781 C   0  0  0  0  0  0  0  0  0  0  0  0
   10.3850    4.6575   23.2386 O   0  0  0  0  0  0  0  0  0  0  0  0
    4.2069    6.8450   20.7994 C   0  0  0  0  0  0  0  0  0  0  0  0
    3.0726   10.1043   19.8522 O   0  0  0  0  0  0  0  0  0  0  0  0
    5.5057    7.1196   21.1155 C   0  0  0  0  0  0  0  0  0  0  0  0
    7.0367   11.0229   21.9948 O   0  0  0  0  0  0  0  0  0  0  0  0
  1  8  4  0
  1 12  4  0
  2  9  1  0
  2 11  4  0
  2 25  4  0
  3 12  4  0
  3 14  1  0
  3 23  4  0
  4 13  4  0
  4 21  4  0
  4 24  1  0
  5  8  4  0
  5 23  4  0
  6 18  2  0
  7 15  4  0
  7 16  1  0
  7 27  4  0
  8 18  1  0
 10 18  1  0
 10 20  1  0
 11 15  4  0
 11 26  1  0
 13 22  4  0
 16 19  1  0
 16 20  2  0
 17 19  4  0
 17 21  4  0
 19 22  4  0
 20 28  1  0
 25 27  4  0
M  END
$$$$

 Created by Python create_sdf_string function

 28 30  0  0  0  0  0  0  0  0999 V2000
   11.4592   11.2893   18.7941 C   0  0  0  0  0  0  0  0  0  0  0  0
    3.4202    7.9009   20.3866 C   0  0  0  0  0  0  0  0  0  0  0  0
   13.5280   10.3522   19.3586 C   0  0  0  0  0  0  0  0  0  0  0  0
    9.6923    5.6468   22.7891 C   0  0  0  0  0  0  0  0  0  0  0  0
   11.7756   10.2554   20.8841 N   0  0  0  0  0  0  0  0  0  0  0  0
    8.9876   11.9370   19.8757 O   0  0  0  0  0  0  0  0  0  0  0  0
    6.0167    8.4478   21.1089 C   0  0  0  0  0  0  0  0  0  0  0  0
   11.0002   10.8890   20.0262 C   0  0  0  0  0  0  0  0  0  0  0  0
    2.1721    7.7393   20.0315 O   0  0  0  0  0  0  0  0  0  0  0  0
    9.1107   10.3880   21.3769 N   0  0  0  0  0  0  0  0  0  0  0  0
    3.9102    9.2008   20.3124 C   0  0  0  0  0  0  0  0  0  0  0  0
   12.7292   10.9960   18.4597 C   0  0  0  0  0  0  0  0  0  0  0  0
    9.3798    6.6793   23.6625 C   0  0  0  0  0  0  0  0  0  0  0  0
   14.7425   10.0739   19.0802 O   0  0  0  0  0  0  0  0  0  0  0  0
    5.1894    9.4673   20.7118 C   0  0  0  0  0  0  0  0  0  0  0  0
    7.3773    8.8224   21.4870 C   0  0  0  0  0  0  0  0  0  0  0  0
    8.4391    6.6439   21.0235 C   0  0  0  0  0  0  0  0  0  0  0  0
    9.6494   11.1353   20.4167 C   0  0  0  0  0  0  0  0  0  0  0  0
    8.1431    7.6829   21.9046 C   0  0  0  0  0  0  0  0  0  0  0  0
    7.7796   10.1314   21.5115 N   0  0  0  0  0  0  0  0  0  0  0  0
    9.2768    5.6183   21.4437 C   0  0  0  0  0  0  0  0  0  0  0  0
    8.6315    7.7322   23.1768 C   0  0  0  0  0  0  0  0  0  0  0  0
   13.0537    9.9821   20.5781 C   0  0  0  0  0  0  0  0  0  0  0  0
   10.3850    4.6575   23.2386 O   0  0  0  0  0  0  0  0  0  0  0  0
    4.2069    6.8450   20.7994 C   0  0  0  0  0  0  0  0  0  0  0  0
    3.0726   10.1043   19.8522 O   0  0  0  0  0  0  0  0  0  0  0  0
    5.5057    7.1196   21.1155 C   0  0  0  0  0  0  0  0  0  0  0  0
    7.0367   11.0229   21.9948 O   0  0  0  0  0  0  0  0  0  0  0  0
  1  8  4  0
  1 12  4  0
  2  9  1  0
  2 11  4  0
  2 25  4  0
  3 12  4  0
  3 14  1  0
  3 23  4  0
  4 13  4  0
  4 21  4  0
  4 24  1  0
  5  8  4  0
  5 23  4  0
  6 18  2  0
  7 15  4  0
  7 16  1  0
  7 27  4  0
  8 18  1  0
 10 18  1  0
 10 20  1  0
 11 15  4  0
 11 26  1  0
 13 22  4  0
 16 19  1  0
 16 20  2  0
 17 19  4  0
 17 21  4  0
 19 22  4  0
 20 28  1  0
 25 27  4  0
M  END
$$$$

 Created by Python create_sdf_string function

 28 30  0  0  0  0  0  0  0  0999 V2000
   11.4592   11.2893   18.7941 C   0  0  0  0  0  0  0  0  0  0  0  0
    3.4202    7.9009   20.3866 C   0  0  0  0  0  0  0  0  0  0  0  0
   13.5280   10.3522   19.3586 C   0  0  0  0  0  0  0  0  0  0  0  0
    9.6923    5.6468   22.7891 C   0  0  0  0  0  0  0  0  0  0  0  0
   11.7756   10.2554   20.8841 N   0  0  0  0  0  0  0  0  0  0  0  0
    8.9876   11.9370   19.8757 O   0  0  0  0  0  0  0  0  0  0  0  0
    6.0167    8.4478   21.1089 C   0  0  0  0  0  0  0  0  0  0  0  0
   11.0002   10.8890   20.0262 C   0  0  0  0  0  0  0  0  0  0  0  0
    2.1721    7.7393   20.0315 O   0  0  0  0  0  0  0  0  0  0  0  0
    9.1107   10.3880   21.3769 N   0  0  0  0  0  0  0  0  0  0  0  0
    3.9102    9.2008   20.3124 C   0  0  0  0  0  0  0  0  0  0  0  0
   12.7292   10.9960   18.4597 C   0  0  0  0  0  0  0  0  0  0  0  0
    9.3798    6.6793   23.6625 C   0  0  0  0  0  0  0  0  0  0  0  0
   14.7425   10.0739   19.0802 O   0  0  0  0  0  0  0  0  0  0  0  0
    5.1894    9.4673   20.7118 C   0  0  0  0  0  0  0  0  0  0  0  0
    7.3773    8.8224   21.4870 C   0  0  0  0  0  0  0  0  0  0  0  0
    8.4391    6.6439   21.0235 C   0  0  0  0  0  0  0  0  0  0  0  0
    9.6494   11.1353   20.4167 C   0  0  0  0  0  0  0  0  0  0  0  0
    8.1431    7.6829   21.9046 C   0  0  0  0  0  0  0  0  0  0  0  0
    7.7796   10.1314   21.5115 N   0  0  0  0  0  0  0  0  0  0  0  0
    9.2768    5.6183   21.4437 C   0  0  0  0  0  0  0  0  0  0  0  0
    8.6315    7.7322   23.1768 C   0  0  0  0  0  0  0  0  0  0  0  0
   13.0537    9.9821   20.5781 C   0  0  0  0  0  0  0  0  0  0  0  0
   10.3850    4.6575   23.2386 O   0  0  0  0  0  0  0  0  0  0  0  0
    4.2069    6.8450   20.7994 C   0  0  0  0  0  0  0  0  0  0  0  0
    3.0726   10.1043   19.8522 O   0  0  0  0  0  0  0  0  0  0  0  0
    5.5057    7.1196   21.1155 C   0  0  0  0  0  0  0  0  0  0  0  0
    7.0367   11.0229   21.9948 O   0  0  0  0  0  0  0  0  0  0  0  0
  1  8  4  0
  1 12  4  0
  2  9  1  0
  2 11  4  0
  2 25  4  0
  3 12  4  0
  3 14  1  0
  3 23  4  0
  4 13  4  0
  4 21  4  0
  4 24  1  0
  5  8  4  0
  5 23  4  0
  6 18  2  0
  7 15  4  0
  7 16  1  0
  7 27  4  0
  8 18  1  0
 10 18  1  0
 10 20  1  0
 11 15  4  0
 11 26  1  0
 13 22  4  0
 16 19  1  0
 16 20  2  0
 17 19  4  0
 17 21  4  0
 19 22  4  0
 20 28  1  0
 25 27  4  0
M  END
$$$$

 Created by Python create_sdf_string function

 28 30  0  0  0  0  0  0  0  0999 V2000
   11.4592   11.2893   18.7941 C   0  0  0  0  0  0  0  0  0  0  0  0
    3.4202    7.9009   20.3866 C   0  0  0  0  0  0  0  0  0  0  0  0
   13.5280   10.3522   19.3586 C   0  0  0  0  0  0  0  0  0  0  0  0
    9.6923    5.6468   22.7891 C   0  0  0  0  0  0  0  0  0  0  0  0
   11.7756   10.2554   20.8841 N   0  0  0  0  0  0  0  0  0  0  0  0
    8.9876   11.9370   19.8757 O   0  0  0  0  0  0  0  0  0  0  0  0
    6.0167    8.4478   21.1089 C   0  0  0  0  0  0  0  0  0  0  0  0
   11.0002   10.8890   20.0262 C   0  0  0  0  0  0  0  0  0  0  0  0
    2.1721    7.7393   20.0315 O   0  0  0  0  0  0  0  0  0  0  0  0
    9.1107   10.3880   21.3769 N   0  0  0  0  0  0  0  0  0  0  0  0
    3.9102    9.2008   20.3124 C   0  0  0  0  0  0  0  0  0  0  0  0
   12.7292   10.9960   18.4597 C   0  0  0  0  0  0  0  0  0  0  0  0
    9.3798    6.6793   23.6625 C   0  0  0  0  0  0  0  0  0  0  0  0
   14.7425   10.0739   19.0802 O   0  0  0  0  0  0  0  0  0  0  0  0
    5.1894    9.4673   20.7118 C   0  0  0  0  0  0  0  0  0  0  0  0
    7.3773    8.8224   21.4870 C   0  0  0  0  0  0  0  0  0  0  0  0
    8.4391    6.6439   21.0235 C   0  0  0  0  0  0  0  0  0  0  0  0
    9.6494   11.1353   20.4167 C   0  0  0  0  0  0  0  0  0  0  0  0
    8.1431    7.6829   21.9046 C   0  0  0  0  0  0  0  0  0  0  0  0
    7.7796   10.1314   21.5115 N   0  0  0  0  0  0  0  0  0  0  0  0
    9.2768    5.6183   21.4437 C   0  0  0  0  0  0  0  0  0  0  0  0
    8.6315    7.7322   23.1768 C   0  0  0  0  0  0  0  0  0  0  0  0
   13.0537    9.9821   20.5781 C   0  0  0  0  0  0  0  0  0  0  0  0
   10.3850    4.6575   23.2386 O   0  0  0  0  0  0  0  0  0  0  0  0
    4.2069    6.8450   20.7994 C   0  0  0  0  0  0  0  0  0  0  0  0
    3.0726   10.1043   19.8522 O   0  0  0  0  0  0  0  0  0  0  0  0
    5.5057    7.1196   21.1155 C   0  0  0  0  0  0  0  0  0  0  0  0
    7.0367   11.0229   21.9948 O   0  0  0  0  0  0  0  0  0  0  0  0
  1  8  4  0
  1 12  4  0
  2  9  1  0
  2 11  4  0
  2 25  4  0
  3 12  4  0
  3 14  1  0
  3 23  4  0
  4 13  4  0
  4 21  4  0
  4 24  1  0
  5  8  4  0
  5 23  4  0
  6 18  2  0
  7 15  4  0
  7 16  1  0
  7 27  4  0
  8 18  1  0
 10 18  1  0
 10 20  1  0
 11 15  4  0
 11 26  1  0
 13 22  4  0
 16 19  1  0
 16 20  2  0
 17 19  4  0
 17 21  4  0
 19 22  4  0
 20 28  1  0
 25 27  4  0
M  END
$$$$

 Created by Python create_sdf_string function

 28 30  0  0  0  0  0  0  0  0999 V2000
   11.4592   11.2893   18.7941 C   0  0  0  0  0  0  0  0  0  0  0  0
    3.4202    7.9009   20.3866 C   0  0  0  0  0  0  0  0  0  0  0  0
   13.5280   10.3522   19.3586 C   0  0  0  0  0  0  0  0  0  0  0  0
    9.6923    5.6468   22.7891 C   0  0  0  0  0  0  0  0  0  0  0  0
   11.7756   10.2554   20.8841 N   0  0  0  0  0  0  0  0  0  0  0  0
    8.9876   11.9370   19.8757 O   0  0  0  0  0  0  0  0  0  0  0  0
    6.0167    8.4478   21.1089 C   0  0  0  0  0  0  0  0  0  0  0  0
   11.0002   10.8890   20.0262 C   0  0  0  0  0  0  0  0  0  0  0  0
    2.1721    7.7393   20.0315 O   0  0  0  0  0  0  0  0  0  0  0  0
    9.1107   10.3880   21.3769 N   0  0  0  0  0  0  0  0  0  0  0  0
    3.9102    9.2008   20.3124 C   0  0  0  0  0  0  0  0  0  0  0  0
   12.7292   10.9960   18.4597 C   0  0  0  0  0  0  0  0  0  0  0  0
    9.3798    6.6793   23.6625 C   0  0  0  0  0  0  0  0  0  0  0  0
   14.7425   10.0739   19.0802 O   0  0  0  0  0  0  0  0  0  0  0  0
    5.1894    9.4673   20.7118 C   0  0  0  0  0  0  0  0  0  0  0  0
    7.3773    8.8224   21.4870 C   0  0  0  0  0  0  0  0  0  0  0  0
    8.4391    6.6439   21.0235 C   0  0  0  0  0  0  0  0  0  0  0  0
    9.6494   11.1353   20.4167 C   0  0  0  0  0  0  0  0  0  0  0  0
    8.1431    7.6829   21.9046 C   0  0  0  0  0  0  0  0  0  0  0  0
    7.7796   10.1314   21.5115 N   0  0  0  0  0  0  0  0  0  0  0  0
    9.2768    5.6183   21.4437 C   0  0  0  0  0  0  0  0  0  0  0  0
    8.6315    7.7322   23.1768 C   0  0  0  0  0  0  0  0  0  0  0  0
   13.0537    9.9821   20.5781 C   0  0  0  0  0  0  0  0  0  0  0  0
   10.3850    4.6575   23.2386 O   0  0  0  0  0  0  0  0  0  0  0  0
    4.2069    6.8450   20.7994 C   0  0  0  0  0  0  0  0  0  0  0  0
    3.0726   10.1043   19.8522 O   0  0  0  0  0  0  0  0  0  0  0  0
    5.5057    7.1196   21.1155 C   0  0  0  0  0  0  0  0  0  0  0  0
    7.0367   11.0229   21.9948 O   0  0  0  0  0  0  0  0  0  0  0  0
  1  8  4  0
  1 12  4  0
  2  9  1  0
  2 11  4  0
  2 25  4  0
  3 12  4  0
  3 14  1  0
  3 23  4  0
  4 13  4  0
  4 21  4  0
  4 24  1  0
  5  8  4  0
  5 23  4  0
  6 18  2  0
  7 15  4  0
  7 16  1  0
  7 27  4  0
  8 18  1  0
 10 18  1  0
 10 20  1  0
 11 15  4  0
 11 26  1  0
 13 22  4  0
 16 19  1  0
 16 20  2  0
 17 19  4  0
 17 21  4  0
 19 22  4  0
 20 28  1  0
 25 27  4  0
M  END
$$$$

 Created by Python create_sdf_string function

 28 30  0  0  0  0  0  0  0  0999 V2000
   11.4592   11.2893   18.7941 C   0  0  0  0  0  0  0  0  0  0  0  0
    3.4202    7.9009   20.3866 C   0  0  0  0  0  0  0  0  0  0  0  0
   13.5280   10.3522   19.3586 C   0  0  0  0  0  0  0  0  0  0  0  0
    9.6923    5.6468   22.7891 C   0  0  0  0  0  0  0  0  0  0  0  0
   11.7756   10.2554   20.8841 N   0  0  0  0  0  0  0  0  0  0  0  0
    8.9876   11.9370   19.8757 O   0  0  0  0  0  0  0  0  0  0  0  0
    6.0167    8.4478   21.1089 C   0  0  0  0  0  0  0  0  0  0  0  0
   11.0002   10.8890   20.0262 C   0  0  0  0  0  0  0  0  0  0  0  0
    2.1721    7.7393   20.0315 O   0  0  0  0  0  0  0  0  0  0  0  0
    9.1107   10.3880   21.3769 N   0  0  0  0  0  0  0  0  0  0  0  0
    3.9102    9.2008   20.3124 C   0  0  0  0  0  0  0  0  0  0  0  0
   12.7292   10.9960   18.4597 C   0  0  0  0  0  0  0  0  0  0  0  0
    9.3798    6.6793   23.6625 C   0  0  0  0  0  0  0  0  0  0  0  0
   14.7425   10.0739   19.0802 O   0  0  0  0  0  0  0  0  0  0  0  0
    5.1894    9.4673   20.7118 C   0  0  0  0  0  0  0  0  0  0  0  0
    7.3773    8.8224   21.4870 C   0  0  0  0  0  0  0  0  0  0  0  0
    8.4391    6.6439   21.0235 C   0  0  0  0  0  0  0  0  0  0  0  0
    9.6494   11.1353   20.4167 C   0  0  0  0  0  0  0  0  0  0  0  0
    8.1431    7.6829   21.9046 C   0  0  0  0  0  0  0  0  0  0  0  0
    7.7796   10.1314   21.5115 N   0  0  0  0  0  0  0  0  0  0  0  0
    9.2768    5.6183   21.4437 C   0  0  0  0  0  0  0  0  0  0  0  0
    8.6315    7.7322   23.1768 C   0  0  0  0  0  0  0  0  0  0  0  0
   13.0537    9.9821   20.5781 C   0  0  0  0  0  0  0  0  0  0  0  0
   10.3850    4.6575   23.2386 O   0  0  0  0  0  0  0  0  0  0  0  0
    4.2069    6.8450   20.7994 C   0  0  0  0  0  0  0  0  0  0  0  0
    3.0726   10.1043   19.8522 O   0  0  0  0  0  0  0  0  0  0  0  0
    5.5057    7.1196   21.1155 C   0  0  0  0  0  0  0  0  0  0  0  0
    7.0367   11.0229   21.9948 O   0  0  0  0  0  0  0  0  0  0  0  0
  1  8  4  0
  1 12  4  0
  2  9  1  0
  2 11  4  0
  2 25  4  0
  3 12  4  0
  3 14  1  0
  3 23  4  0
  4 13  4  0
  4 21  4  0
  4 24  1  0
  5  8  4  0
  5 23  4  0
  6 18  2  0
  7 15  4  0
  7 16  1  0
  7 27  4  0
  8 18  1  0
 10 18  1  0
 10 20  1  0
 11 15  4  0
 11 26  1  0
 13 22  4  0
 16 19  1  0
 16 20  2  0
 17 19  4  0
 17 21  4  0
 19 22  4  0
 20 28  1  0
 25 27  4  0
M  END
$$$$

 Created by Python create_sdf_string function

 28 30  0  0  0  0  0  0  0  0999 V2000
   11.4592   11.2893   18.7941 C   0  0  0  0  0  0  0  0  0  0  0  0
    3.4202    7.9009   20.3866 C   0  0  0  0  0  0  0  0  0  0  0  0
   13.5280   10.3522   19.3586 C   0  0  0  0  0  0  0  0  0  0  0  0
    9.6923    5.6468   22.7891 C   0  0  0  0  0  0  0  0  0  0  0  0
   11.7756   10.2554   20.8841 N   0  0  0  0  0  0  0  0  0  0  0  0
    8.9876   11.9370   19.8757 O   0  0  0  0  0  0  0  0  0  0  0  0
    6.0167    8.4478   21.1089 C   0  0  0  0  0  0  0  0  0  0  0  0
   11.0002   10.8890   20.0262 C   0  0  0  0  0  0  0  0  0  0  0  0
    2.1721    7.7393   20.0315 O   0  0  0  0  0  0  0  0  0  0  0  0
    9.1107   10.3880   21.3769 N   0  0  0  0  0  0  0  0  0  0  0  0
    3.9102    9.2008   20.3124 C   0  0  0  0  0  0  0  0  0  0  0  0
   12.7292   10.9960   18.4597 C   0  0  0  0  0  0  0  0  0  0  0  0
    9.3798    6.6793   23.6625 C   0  0  0  0  0  0  0  0  0  0  0  0
   14.7425   10.0739   19.0802 O   0  0  0  0  0  0  0  0  0  0  0  0
    5.1894    9.4673   20.7118 C   0  0  0  0  0  0  0  0  0  0  0  0
    7.3773    8.8224   21.4870 C   0  0  0  0  0  0  0  0  0  0  0  0
    8.4391    6.6439   21.0235 C   0  0  0  0  0  0  0  0  0  0  0  0
    9.6494   11.1353   20.4167 C   0  0  0  0  0  0  0  0  0  0  0  0
    8.1431    7.6829   21.9046 C   0  0  0  0  0  0  0  0  0  0  0  0
    7.7796   10.1314   21.5115 N   0  0  0  0  0  0  0  0  0  0  0  0
    9.2768    5.6183   21.4437 C   0  0  0  0  0  0  0  0  0  0  0  0
    8.6315    7.7322   23.1768 C   0  0  0  0  0  0  0  0  0  0  0  0
   13.0537    9.9821   20.5781 C   0  0  0  0  0  0  0  0  0  0  0  0
   10.3850    4.6575   23.2386 O   0  0  0  0  0  0  0  0  0  0  0  0
    4.2069    6.8450   20.7994 C   0  0  0  0  0  0  0  0  0  0  0  0
    3.0726   10.1043   19.8522 O   0  0  0  0  0  0  0  0  0  0  0  0
    5.5057    7.1196   21.1155 C   0  0  0  0  0  0  0  0  0  0  0  0
    7.0367   11.0229   21.9948 O   0  0  0  0  0  0  0  0  0  0  0  0
  1  8  4  0
  1 12  4  0
  2  9  1  0
  2 11  4  0
  2 25  4  0
  3 12  4  0
  3 14  1  0
  3 23  4  0
  4 13  4  0
  4 21  4  0
  4 24  1  0
  5  8  4  0
  5 23  4  0
  6 18  2  0
  7 15  4  0
  7 16  1  0
  7 27  4  0
  8 18  1  0
 10 18  1  0
 10 20  1  0
 11 15  4  0
 11 26  1  0
 13 22  4  0
 16 19  1  0
 16 20  2  0
 17 19  4  0
 17 21  4  0
 19 22  4  0
 20 28  1  0
 25 27  4  0
M  END
$$$$

 Created by Python create_sdf_string function

 28 30  0  0  0  0  0  0  0  0999 V2000
   11.4592   11.2893   18.7941 C   0  0  0  0  0  0  0  0  0  0  0  0
    3.4202    7.9009   20.3866 C   0  0  0  0  0  0  0  0  0  0  0  0
   13.5280   10.3522   19.3586 C   0  0  0  0  0  0  0  0  0  0  0  0
    9.6923    5.6468   22.7891 C   0  0  0  0  0  0  0  0  0  0  0  0
   11.7756   10.2554   20.8841 N   0  0  0  0  0  0  0  0  0  0  0  0
    8.9876   11.9370   19.8757 O   0  0  0  0  0  0  0  0  0  0  0  0
    6.0167    8.4478   21.1089 C   0  0  0  0  0  0  0  0  0  0  0  0
   11.0002   10.8890   20.0262 C   0  0  0  0  0  0  0  0  0  0  0  0
    2.1721    7.7393   20.0315 O   0  0  0  0  0  0  0  0  0  0  0  0
    9.1107   10.3880   21.3769 N   0  0  0  0  0  0  0  0  0  0  0  0
    3.9102    9.2008   20.3124 C   0  0  0  0  0  0  0  0  0  0  0  0
   12.7292   10.9960   18.4597 C   0  0  0  0  0  0  0  0  0  0  0  0
    9.3798    6.6793   23.6625 C   0  0  0  0  0  0  0  0  0  0  0  0
   14.7425   10.0739   19.0802 O   0  0  0  0  0  0  0  0  0  0  0  0
    5.1894    9.4673   20.7118 C   0  0  0  0  0  0  0  0  0  0  0  0
    7.3773    8.8224   21.4870 C   0  0  0  0  0  0  0  0  0  0  0  0
    8.4391    6.6439   21.0235 C   0  0  0  0  0  0  0  0  0  0  0  0
    9.6494   11.1353   20.4167 C   0  0  0  0  0  0  0  0  0  0  0  0
    8.1431    7.6829   21.9046 C   0  0  0  0  0  0  0  0  0  0  0  0
    7.7796   10.1314   21.5115 N   0  0  0  0  0  0  0  0  0  0  0  0
    9.2768    5.6183   21.4437 C   0  0  0  0  0  0  0  0  0  0  0  0
    8.6315    7.7322   23.1768 C   0  0  0  0  0  0  0  0  0  0  0  0
   13.0537    9.9821   20.5781 C   0  0  0  0  0  0  0  0  0  0  0  0
   10.3850    4.6575   23.2386 O   0  0  0  0  0  0  0  0  0  0  0  0
    4.2069    6.8450   20.7994 C   0  0  0  0  0  0  0  0  0  0  0  0
    3.0726   10.1043   19.8522 O   0  0  0  0  0  0  0  0  0  0  0  0
    5.5057    7.1196   21.1155 C   0  0  0  0  0  0  0  0  0  0  0  0
    7.0367   11.0229   21.9948 O   0  0  0  0  0  0  0  0  0  0  0  0
  1  8  4  0
  1 12  4  0
  2  9  1  0
  2 11  4  0
  2 25  4  0
  3 12  4  0
  3 14  1  0
  3 23  4  0
  4 13  4  0
  4 21  4  0
  4 24  1  0
  5  8  4  0
  5 23  4  0
  6 18  2  0
  7 15  4  0
  7 16  1  0
  7 27  4  0
  8 18  1  0
 10 18  1  0
 10 20  1  0
 11 15  4  0
 11 26  1  0
 13 22  4  0
 16 19  1  0
 16 20  2  0
 17 19  4  0
 17 21  4  0
 19 22  4  0
 20 28  1  0
 25 27  4  0
M  END
$$$$

 Created by Python create_sdf_string function

 28 30  0  0  0  0  0  0  0  0999 V2000
   11.4592   11.2893   18.7941 C   0  0  0  0  0  0  0  0  0  0  0  0
    3.4202    7.9009   20.3866 C   0  0  0  0  0  0  0  0  0  0  0  0
   13.5280   10.3522   19.3586 C   0  0  0  0  0  0  0  0  0  0  0  0
    9.6923    5.6468   22.7891 C   0  0  0  0  0  0  0  0  0  0  0  0
   11.7756   10.2554   20.8841 N   0  0  0  0  0  0  0  0  0  0  0  0
    8.9876   11.9370   19.8757 O   0  0  0  0  0  0  0  0  0  0  0  0
    6.0167    8.4478   21.1089 C   0  0  0  0  0  0  0  0  0  0  0  0
   11.0002   10.8890   20.0262 C   0  0  0  0  0  0  0  0  0  0  0  0
    2.1721    7.7393   20.0315 O   0  0  0  0  0  0  0  0  0  0  0  0
    9.1107   10.3880   21.3769 N   0  0  0  0  0  0  0  0  0  0  0  0
    3.9102    9.2008   20.3124 C   0  0  0  0  0  0  0  0  0  0  0  0
   12.7292   10.9960   18.4597 C   0  0  0  0  0  0  0  0  0  0  0  0
    9.3798    6.6793   23.6625 C   0  0  0  0  0  0  0  0  0  0  0  0
   14.7425   10.0739   19.0802 O   0  0  0  0  0  0  0  0  0  0  0  0
    5.1894    9.4673   20.7118 C   0  0  0  0  0  0  0  0  0  0  0  0
    7.3773    8.8224   21.4870 C   0  0  0  0  0  0  0  0  0  0  0  0
    8.4391    6.6439   21.0235 C   0  0  0  0  0  0  0  0  0  0  0  0
    9.6494   11.1353   20.4167 C   0  0  0  0  0  0  0  0  0  0  0  0
    8.1431    7.6829   21.9046 C   0  0  0  0  0  0  0  0  0  0  0  0
    7.7796   10.1314   21.5115 N   0  0  0  0  0  0  0  0  0  0  0  0
    9.2768    5.6183   21.4437 C   0  0  0  0  0  0  0  0  0  0  0  0
    8.6315    7.7322   23.1768 C   0  0  0  0  0  0  0  0  0  0  0  0
   13.0537    9.9821   20.5781 C   0  0  0  0  0  0  0  0  0  0  0  0
   10.3850    4.6575   23.2386 O   0  0  0  0  0  0  0  0  0  0  0  0
    4.2069    6.8450   20.7994 C   0  0  0  0  0  0  0  0  0  0  0  0
    3.0726   10.1043   19.8522 O   0  0  0  0  0  0  0  0  0  0  0  0
    5.5057    7.1196   21.1155 C   0  0  0  0  0  0  0  0  0  0  0  0
    7.0367   11.0229   21.9948 O   0  0  0  0  0  0  0  0  0  0  0  0
  1  8  4  0
  1 12  4  0
  2  9  1  0
  2 11  4  0
  2 25  4  0
  3 12  4  0
  3 14  1  0
  3 23  4  0
  4 13  4  0
  4 21  4  0
  4 24  1  0
  5  8  4  0
  5 23  4  0
  6 18  2  0
  7 15  4  0
  7 16  1  0
  7 27  4  0
  8 18  1  0
 10 18  1  0
 10 20  1  0
 11 15  4  0
 11 26  1  0
 13 22  4  0
 16 19  1  0
 16 20  2  0
 17 19  4  0
 17 21  4  0
 19 22  4  0
 20 28  1  0
 25 27  4  0
M  END
$$$$

 Created by Python create_sdf_string function

 28 30  0  0  0  0  0  0  0  0999 V2000
   11.4592   11.2893   18.7941 C   0  0  0  0  0  0  0  0  0  0  0  0
    3.4202    7.9009   20.3866 C   0  0  0  0  0  0  0  0  0  0  0  0
   13.5280   10.3522   19.3586 C   0  0  0  0  0  0  0  0  0  0  0  0
    9.6923    5.6468   22.7891 C   0  0  0  0  0  0  0  0  0  0  0  0
   11.7756   10.2554   20.8841 N   0  0  0  0  0  0  0  0  0  0  0  0
    8.9876   11.9370   19.8757 O   0  0  0  0  0  0  0  0  0  0  0  0
    6.0167    8.4478   21.1089 C   0  0  0  0  0  0  0  0  0  0  0  0
   11.0002   10.8890   20.0262 C   0  0  0  0  0  0  0  0  0  0  0  0
    2.1721    7.7393   20.0315 O   0  0  0  0  0  0  0  0  0  0  0  0
    9.1107   10.3880   21.3769 N   0  0  0  0  0  0  0  0  0  0  0  0
    3.9102    9.2008   20.3124 C   0  0  0  0  0  0  0  0  0  0  0  0
   12.7292   10.9960   18.4597 C   0  0  0  0  0  0  0  0  0  0  0  0
    9.3798    6.6793   23.6625 C   0  0  0  0  0  0  0  0  0  0  0  0
   14.7425   10.0739   19.0802 O   0  0  0  0  0  0  0  0  0  0  0  0
    5.1894    9.4673   20.7118 C   0  0  0  0  0  0  0  0  0  0  0  0
    7.3773    8.8224   21.4870 C   0  0  0  0  0  0  0  0  0  0  0  0
    8.4391    6.6439   21.0235 C   0  0  0  0  0  0  0  0  0  0  0  0
    9.6494   11.1353   20.4167 C   0  0  0  0  0  0  0  0  0  0  0  0
    8.1431    7.6829   21.9046 C   0  0  0  0  0  0  0  0  0  0  0  0
    7.7796   10.1314   21.5115 N   0  0  0  0  0  0  0  0  0  0  0  0
    9.2768    5.6183   21.4437 C   0  0  0  0  0  0  0  0  0  0  0  0
    8.6315    7.7322   23.1768 C   0  0  0  0  0  0  0  0  0  0  0  0
   13.0537    9.9821   20.5781 C   0  0  0  0  0  0  0  0  0  0  0  0
   10.3850    4.6575   23.2386 O   0  0  0  0  0  0  0  0  0  0  0  0
    4.2069    6.8450   20.7994 C   0  0  0  0  0  0  0  0  0  0  0  0
    3.0726   10.1043   19.8522 O   0  0  0  0  0  0  0  0  0  0  0  0
    5.5057    7.1196   21.1155 C   0  0  0  0  0  0  0  0  0  0  0  0
    7.0367   11.0229   21.9948 O   0  0  0  0  0  0  0  0  0  0  0  0
  1  8  4  0
  1 12  4  0
  2  9  1  0
  2 11  4  0
  2 25  4  0
  3 12  4  0
  3 14  1  0
  3 23  4  0
  4 13  4  0
  4 21  4  0
  4 24  1  0
  5  8  4  0
  5 23  4  0
  6 18  2  0
  7 15  4  0
  7 16  1  0
  7 27  4  0
  8 18  1  0
 10 18  1  0
 10 20  1  0
 11 15  4  0
 11 26  1  0
 13 22  4  0
 16 19  1  0
 16 20  2  0
 17 19  4  0
 17 21  4  0
 19 22  4  0
 20 28  1  0
 25 27  4  0
M  END
$$$$

 Created by Python create_sdf_string function

 28 30  0  0  0  0  0  0  0  0999 V2000
   11.4592   11.2893   18.7941 C   0  0  0  0  0  0  0  0  0  0  0  0
    3.4202    7.9009   20.3866 C   0  0  0  0  0  0  0  0  0  0  0  0
   13.5280   10.3522   19.3586 C   0  0  0  0  0  0  0  0  0  0  0  0
    9.6923    5.6468   22.7891 C   0  0  0  0  0  0  0  0  0  0  0  0
   11.7756   10.2554   20.8841 N   0  0  0  0  0  0  0  0  0  0  0  0
    8.9876   11.9370   19.8757 O   0  0  0  0  0  0  0  0  0  0  0  0
    6.0167    8.4478   21.1089 C   0  0  0  0  0  0  0  0  0  0  0  0
   11.0002   10.8890   20.0262 C   0  0  0  0  0  0  0  0  0  0  0  0
    2.1721    7.7393   20.0315 O   0  0  0  0  0  0  0  0  0  0  0  0
    9.1107   10.3880   21.3769 N   0  0  0  0  0  0  0  0  0  0  0  0
    3.9102    9.2008   20.3124 C   0  0  0  0  0  0  0  0  0  0  0  0
   12.7292   10.9960   18.4597 C   0  0  0  0  0  0  0  0  0  0  0  0
    9.3798    6.6793   23.6625 C   0  0  0  0  0  0  0  0  0  0  0  0
   14.7425   10.0739   19.0802 O   0  0  0  0  0  0  0  0  0  0  0  0
    5.1894    9.4673   20.7118 C   0  0  0  0  0  0  0  0  0  0  0  0
    7.3773    8.8224   21.4870 C   0  0  0  0  0  0  0  0  0  0  0  0
    8.4391    6.6439   21.0235 C   0  0  0  0  0  0  0  0  0  0  0  0
    9.6494   11.1353   20.4167 C   0  0  0  0  0  0  0  0  0  0  0  0
    8.1431    7.6829   21.9046 C   0  0  0  0  0  0  0  0  0  0  0  0
    7.7796   10.1314   21.5115 N   0  0  0  0  0  0  0  0  0  0  0  0
    9.2768    5.6183   21.4437 C   0  0  0  0  0  0  0  0  0  0  0  0
    8.6315    7.7322   23.1768 C   0  0  0  0  0  0  0  0  0  0  0  0
   13.0537    9.9821   20.5781 C   0  0  0  0  0  0  0  0  0  0  0  0
   10.3850    4.6575   23.2386 O   0  0  0  0  0  0  0  0  0  0  0  0
    4.2069    6.8450   20.7994 C   0  0  0  0  0  0  0  0  0  0  0  0
    3.0726   10.1043   19.8522 O   0  0  0  0  0  0  0  0  0  0  0  0
    5.5057    7.1196   21.1155 C   0  0  0  0  0  0  0  0  0  0  0  0
    7.0367   11.0229   21.9948 O   0  0  0  0  0  0  0  0  0  0  0  0
  1  8  4  0
  1 12  4  0
  2  9  1  0
  2 11  4  0
  2 25  4  0
  3 12  4  0
  3 14  1  0
  3 23  4  0
  4 13  4  0
  4 21  4  0
  4 24  1  0
  5  8  4  0
  5 23  4  0
  6 18  2  0
  7 15  4  0
  7 16  1  0
  7 27  4  0
  8 18  1  0
 10 18  1  0
 10 20  1  0
 11 15  4  0
 11 26  1  0
 13 22  4  0
 16 19  1  0
 16 20  2  0
 17 19  4  0
 17 21  4  0
 19 22  4  0
 20 28  1  0
 25 27  4  0
M  END
$$$$

 Created by Python create_sdf_string function

 28 30  0  0  0  0  0  0  0  0999 V2000
   11.4592   11.2893   18.7941 C   0  0  0  0  0  0  0  0  0  0  0  0
    3.4202    7.9009   20.3866 C   0  0  0  0  0  0  0  0  0  0  0  0
   13.5280   10.3522   19.3586 C   0  0  0  0  0  0  0  0  0  0  0  0
    9.6923    5.6468   22.7891 C   0  0  0  0  0  0  0  0  0  0  0  0
   11.7756   10.2554   20.8841 N   0  0  0  0  0  0  0  0  0  0  0  0
    8.9876   11.9370   19.8757 O   0  0  0  0  0  0  0  0  0  0  0  0
    6.0167    8.4478   21.1089 C   0  0  0  0  0  0  0  0  0  0  0  0
   11.0002   10.8890   20.0262 C   0  0  0  0  0  0  0  0  0  0  0  0
    2.1721    7.7393   20.0315 O   0  0  0  0  0  0  0  0  0  0  0  0
    9.1107   10.3880   21.3769 N   0  0  0  0  0  0  0  0  0  0  0  0
    3.9102    9.2008   20.3124 C   0  0  0  0  0  0  0  0  0  0  0  0
   12.7292   10.9960   18.4597 C   0  0  0  0  0  0  0  0  0  0  0  0
    9.3798    6.6793   23.6625 C   0  0  0  0  0  0  0  0  0  0  0  0
   14.7425   10.0739   19.0802 O   0  0  0  0  0  0  0  0  0  0  0  0
    5.1894    9.4673   20.7118 C   0  0  0  0  0  0  0  0  0  0  0  0
    7.3773    8.8224   21.4870 C   0  0  0  0  0  0  0  0  0  0  0  0
    8.4391    6.6439   21.0235 C   0  0  0  0  0  0  0  0  0  0  0  0
    9.6494   11.1353   20.4167 C   0  0  0  0  0  0  0  0  0  0  0  0
    8.1431    7.6829   21.9046 C   0  0  0  0  0  0  0  0  0  0  0  0
    7.7796   10.1314   21.5115 N   0  0  0  0  0  0  0  0  0  0  0  0
    9.2768    5.6183   21.4437 C   0  0  0  0  0  0  0  0  0  0  0  0
    8.6315    7.7322   23.1768 C   0  0  0  0  0  0  0  0  0  0  0  0
   13.0537    9.9821   20.5781 C   0  0  0  0  0  0  0  0  0  0  0  0
   10.3850    4.6575   23.2386 O   0  0  0  0  0  0  0  0  0  0  0  0
    4.2069    6.8450   20.7994 C   0  0  0  0  0  0  0  0  0  0  0  0
    3.0726   10.1043   19.8522 O   0  0  0  0  0  0  0  0  0  0  0  0
    5.5057    7.1196   21.1155 C   0  0  0  0  0  0  0  0  0  0  0  0
    7.0367   11.0229   21.9948 O   0  0  0  0  0  0  0  0  0  0  0  0
  1  8  4  0
  1 12  4  0
  2  9  1  0
  2 11  4  0
  2 25  4  0
  3 12  4  0
  3 14  1  0
  3 23  4  0
  4 13  4  0
  4 21  4  0
  4 24  1  0
  5  8  4  0
  5 23  4  0
  6 18  2  0
  7 15  4  0
  7 16  1  0
  7 27  4  0
  8 18  1  0
 10 18  1  0
 10 20  1  0
 11 15  4  0
 11 26  1  0
 13 22  4  0
 16 19  1  0
 16 20  2  0
 17 19  4  0
 17 21  4  0
 19 22  4  0
 20 28  1  0
 25 27  4  0
M  END
$$$$

 Created by Python create_sdf_string function

 28 30  0  0  0  0  0  0  0  0999 V2000
   11.4592   11.2893   18.7941 C   0  0  0  0  0  0  0  0  0  0  0  0
    3.4202    7.9009   20.3866 C   0  0  0  0  0  0  0  0  0  0  0  0
   13.5280   10.3522   19.3586 C   0  0  0  0  0  0  0  0  0  0  0  0
    9.6923    5.6468   22.7891 C   0  0  0  0  0  0  0  0  0  0  0  0
   11.7756   10.2554   20.8841 N   0  0  0  0  0  0  0  0  0  0  0  0
    8.9876   11.9370   19.8757 O   0  0  0  0  0  0  0  0  0  0  0  0
    6.0167    8.4478   21.1089 C   0  0  0  0  0  0  0  0  0  0  0  0
   11.0002   10.8890   20.0262 C   0  0  0  0  0  0  0  0  0  0  0  0
    2.1721    7.7393   20.0315 O   0  0  0  0  0  0  0  0  0  0  0  0
    9.1107   10.3880   21.3769 N   0  0  0  0  0  0  0  0  0  0  0  0
    3.9102    9.2008   20.3124 C   0  0  0  0  0  0  0  0  0  0  0  0
   12.7292   10.9960   18.4597 C   0  0  0  0  0  0  0  0  0  0  0  0
    9.3798    6.6793   23.6625 C   0  0  0  0  0  0  0  0  0  0  0  0
   14.7425   10.0739   19.0802 O   0  0  0  0  0  0  0  0  0  0  0  0
    5.1894    9.4673   20.7118 C   0  0  0  0  0  0  0  0  0  0  0  0
    7.3773    8.8224   21.4870 C   0  0  0  0  0  0  0  0  0  0  0  0
    8.4391    6.6439   21.0235 C   0  0  0  0  0  0  0  0  0  0  0  0
    9.6494   11.1353   20.4167 C   0  0  0  0  0  0  0  0  0  0  0  0
    8.1431    7.6829   21.9046 C   0  0  0  0  0  0  0  0  0  0  0  0
    7.7796   10.1314   21.5115 N   0  0  0  0  0  0  0  0  0  0  0  0
    9.2768    5.6183   21.4437 C   0  0  0  0  0  0  0  0  0  0  0  0
    8.6315    7.7322   23.1768 C   0  0  0  0  0  0  0  0  0  0  0  0
   13.0537    9.9821   20.5781 C   0  0  0  0  0  0  0  0  0  0  0  0
   10.3850    4.6575   23.2386 O   0  0  0  0  0  0  0  0  0  0  0  0
    4.2069    6.8450   20.7994 C   0  0  0  0  0  0  0  0  0  0  0  0
    3.0726   10.1043   19.8522 O   0  0  0  0  0  0  0  0  0  0  0  0
    5.5057    7.1196   21.1155 C   0  0  0  0  0  0  0  0  0  0  0  0
    7.0367   11.0229   21.9948 O   0  0  0  0  0  0  0  0  0  0  0  0
  1  8  4  0
  1 12  4  0
  2  9  1  0
  2 11  4  0
  2 25  4  0
  3 12  4  0
  3 14  1  0
  3 23  4  0
  4 13  4  0
  4 21  4  0
  4 24  1  0
  5  8  4  0
  5 23  4  0
  6 18  2  0
  7 15  4  0
  7 16  1  0
  7 27  4  0
  8 18  1  0
 10 18  1  0
 10 20  1  0
 11 15  4  0
 11 26  1  0
 13 22  4  0
 16 19  1  0
 16 20  2  0
 17 19  4  0
 17 21  4  0
 19 22  4  0
 20 28  1  0
 25 27  4  0
M  END
$$$$

 Created by Python create_sdf_string function

 28 30  0  0  0  0  0  0  0  0999 V2000
   11.4592   11.2893   18.7941 C   0  0  0  0  0  0  0  0  0  0  0  0
    3.4202    7.9009   20.3866 C   0  0  0  0  0  0  0  0  0  0  0  0
   13.5280   10.3522   19.3586 C   0  0  0  0  0  0  0  0  0  0  0  0
    9.6923    5.6468   22.7891 C   0  0  0  0  0  0  0  0  0  0  0  0
   11.7756   10.2554   20.8841 N   0  0  0  0  0  0  0  0  0  0  0  0
    8.9876   11.9370   19.8757 O   0  0  0  0  0  0  0  0  0  0  0  0
    6.0167    8.4478   21.1089 C   0  0  0  0  0  0  0  0  0  0  0  0
   11.0002   10.8890   20.0262 C   0  0  0  0  0  0  0  0  0  0  0  0
    2.1721    7.7393   20.0315 O   0  0  0  0  0  0  0  0  0  0  0  0
    9.1107   10.3880   21.3769 N   0  0  0  0  0  0  0  0  0  0  0  0
    3.9102    9.2008   20.3124 C   0  0  0  0  0  0  0  0  0  0  0  0
   12.7292   10.9960   18.4597 C   0  0  0  0  0  0  0  0  0  0  0  0
    9.3798    6.6793   23.6625 C   0  0  0  0  0  0  0  0  0  0  0  0
   14.7425   10.0739   19.0802 O   0  0  0  0  0  0  0  0  0  0  0  0
    5.1894    9.4673   20.7118 C   0  0  0  0  0  0  0  0  0  0  0  0
    7.3773    8.8224   21.4870 C   0  0  0  0  0  0  0  0  0  0  0  0
    8.4391    6.6439   21.0235 C   0  0  0  0  0  0  0  0  0  0  0  0
    9.6494   11.1353   20.4167 C   0  0  0  0  0  0  0  0  0  0  0  0
    8.1431    7.6829   21.9046 C   0  0  0  0  0  0  0  0  0  0  0  0
    7.7796   10.1314   21.5115 N   0  0  0  0  0  0  0  0  0  0  0  0
    9.2768    5.6183   21.4437 C   0  0  0  0  0  0  0  0  0  0  0  0
    8.6315    7.7322   23.1768 C   0  0  0  0  0  0  0  0  0  0  0  0
   13.0537    9.9821   20.5781 C   0  0  0  0  0  0  0  0  0  0  0  0
   10.3850    4.6575   23.2386 O   0  0  0  0  0  0  0  0  0  0  0  0
    4.2069    6.8450   20.7994 C   0  0  0  0  0  0  0  0  0  0  0  0
    3.0726   10.1043   19.8522 O   0  0  0  0  0  0  0  0  0  0  0  0
    5.5057    7.1196   21.1155 C   0  0  0  0  0  0  0  0  0  0  0  0
    7.0367   11.0229   21.9948 O   0  0  0  0  0  0  0  0  0  0  0  0
  1  8  4  0
  1 12  4  0
  2  9  1  0
  2 11  4  0
  2 25  4  0
  3 12  4  0
  3 14  1  0
  3 23  4  0
  4 13  4  0
  4 21  4  0
  4 24  1  0
  5  8  4  0
  5 23  4  0
  6 18  2  0
  7 15  4  0
  7 16  1  0
  7 27  4  0
  8 18  1  0
 10 18  1  0
 10 20  1  0
 11 15  4  0
 11 26  1  0
 13 22  4  0
 16 19  1  0
 16 20  2  0
 17 19  4  0
 17 21  4  0
 19 22  4  0
 20 28  1  0
 25 27  4  0
M  END
$$$$

 Created by Python create_sdf_string function

 28 30  0  0  0  0  0  0  0  0999 V2000
   11.4592   11.2893   18.7941 C   0  0  0  0  0  0  0  0  0  0  0  0
    3.4202    7.9009   20.3866 C   0  0  0  0  0  0  0  0  0  0  0  0
   13.5280   10.3522   19.3586 C   0  0  0  0  0  0  0  0  0  0  0  0
    9.6923    5.6468   22.7891 C   0  0  0  0  0  0  0  0  0  0  0  0
   11.7756   10.2554   20.8841 N   0  0  0  0  0  0  0  0  0  0  0  0
    8.9876   11.9370   19.8757 O   0  0  0  0  0  0  0  0  0  0  0  0
    6.0167    8.4478   21.1089 C   0  0  0  0  0  0  0  0  0  0  0  0
   11.0002   10.8890   20.0262 C   0  0  0  0  0  0  0  0  0  0  0  0
    2.1721    7.7393   20.0315 O   0  0  0  0  0  0  0  0  0  0  0  0
    9.1107   10.3880   21.3769 N   0  0  0  0  0  0  0  0  0  0  0  0
    3.9102    9.2008   20.3124 C   0  0  0  0  0  0  0  0  0  0  0  0
   12.7292   10.9960   18.4597 C   0  0  0  0  0  0  0  0  0  0  0  0
    9.3798    6.6793   23.6625 C   0  0  0  0  0  0  0  0  0  0  0  0
   14.7425   10.0739   19.0802 O   0  0  0  0  0  0  0  0  0  0  0  0
    5.1894    9.4673   20.7118 C   0  0  0  0  0  0  0  0  0  0  0  0
    7.3773    8.8224   21.4870 C   0  0  0  0  0  0  0  0  0  0  0  0
    8.4391    6.6439   21.0235 C   0  0  0  0  0  0  0  0  0  0  0  0
    9.6494   11.1353   20.4167 C   0  0  0  0  0  0  0  0  0  0  0  0
    8.1431    7.6829   21.9046 C   0  0  0  0  0  0  0  0  0  0  0  0
    7.7796   10.1314   21.5115 N   0  0  0  0  0  0  0  0  0  0  0  0
    9.2768    5.6183   21.4437 C   0  0  0  0  0  0  0  0  0  0  0  0
    8.6315    7.7322   23.1768 C   0  0  0  0  0  0  0  0  0  0  0  0
   13.0537    9.9821   20.5781 C   0  0  0  0  0  0  0  0  0  0  0  0
   10.3850    4.6575   23.2386 O   0  0  0  0  0  0  0  0  0  0  0  0
    4.2069    6.8450   20.7994 C   0  0  0  0  0  0  0  0  0  0  0  0
    3.0726   10.1043   19.8522 O   0  0  0  0  0  0  0  0  0  0  0  0
    5.5057    7.1196   21.1155 C   0  0  0  0  0  0  0  0  0  0  0  0
    7.0367   11.0229   21.9948 O   0  0  0  0  0  0  0  0  0  0  0  0
  1  8  4  0
  1 12  4  0
  2  9  1  0
  2 11  4  0
  2 25  4  0
  3 12  4  0
  3 14  1  0
  3 23  4  0
  4 13  4  0
  4 21  4  0
  4 24  1  0
  5  8  4  0
  5 23  4  0
  6 18  2  0
  7 15  4  0
  7 16  1  0
  7 27  4  0
  8 18  1  0
 10 18  1  0
 10 20  1  0
 11 15  4  0
 11 26  1  0
 13 22  4  0
 16 19  1  0
 16 20  2  0
 17 19  4  0
 17 21  4  0
 19 22  4  0
 20 28  1  0
 25 27  4  0
M  END
$$$$

 Created by Python create_sdf_string function

 28 30  0  0  0  0  0  0  0  0999 V2000
   11.4592   11.2893   18.7941 C   0  0  0  0  0  0  0  0  0  0  0  0
    3.4202    7.9009   20.3866 C   0  0  0  0  0  0  0  0  0  0  0  0
   13.5280   10.3522   19.3586 C   0  0  0  0  0  0  0  0  0  0  0  0
    9.6923    5.6468   22.7891 C   0  0  0  0  0  0  0  0  0  0  0  0
   11.7756   10.2554   20.8841 N   0  0  0  0  0  0  0  0  0  0  0  0
    8.9876   11.9370   19.8757 O   0  0  0  0  0  0  0  0  0  0  0  0
    6.0167    8.4478   21.1089 C   0  0  0  0  0  0  0  0  0  0  0  0
   11.0002   10.8890   20.0262 C   0  0  0  0  0  0  0  0  0  0  0  0
    2.1721    7.7393   20.0315 O   0  0  0  0  0  0  0  0  0  0  0  0
    9.1107   10.3880   21.3769 N   0  0  0  0  0  0  0  0  0  0  0  0
    3.9102    9.2008   20.3124 C   0  0  0  0  0  0  0  0  0  0  0  0
   12.7292   10.9960   18.4597 C   0  0  0  0  0  0  0  0  0  0  0  0
    9.3798    6.6793   23.6625 C   0  0  0  0  0  0  0  0  0  0  0  0
   14.7425   10.0739   19.0802 O   0  0  0  0  0  0  0  0  0  0  0  0
    5.1894    9.4673   20.7118 C   0  0  0  0  0  0  0  0  0  0  0  0
    7.3773    8.8224   21.4870 C   0  0  0  0  0  0  0  0  0  0  0  0
    8.4391    6.6439   21.0235 C   0  0  0  0  0  0  0  0  0  0  0  0
    9.6494   11.1353   20.4167 C   0  0  0  0  0  0  0  0  0  0  0  0
    8.1431    7.6829   21.9046 C   0  0  0  0  0  0  0  0  0  0  0  0
    7.7796   10.1314   21.5115 N   0  0  0  0  0  0  0  0  0  0  0  0
    9.2768    5.6183   21.4437 C   0  0  0  0  0  0  0  0  0  0  0  0
    8.6315    7.7322   23.1768 C   0  0  0  0  0  0  0  0  0  0  0  0
   13.0537    9.9821   20.5781 C   0  0  0  0  0  0  0  0  0  0  0  0
   10.3850    4.6575   23.2386 O   0  0  0  0  0  0  0  0  0  0  0  0
    4.2069    6.8450   20.7994 C   0  0  0  0  0  0  0  0  0  0  0  0
    3.0726   10.1043   19.8522 O   0  0  0  0  0  0  0  0  0  0  0  0
    5.5057    7.1196   21.1155 C   0  0  0  0  0  0  0  0  0  0  0  0
    7.0367   11.0229   21.9948 O   0  0  0  0  0  0  0  0  0  0  0  0
  1  8  4  0
  1 12  4  0
  2  9  1  0
  2 11  4  0
  2 25  4  0
  3 12  4  0
  3 14  1  0
  3 23  4  0
  4 13  4  0
  4 21  4  0
  4 24  1  0
  5  8  4  0
  5 23  4  0
  6 18  2  0
  7 15  4  0
  7 16  1  0
  7 27  4  0
  8 18  1  0
 10 18  1  0
 10 20  1  0
 11 15  4  0
 11 26  1  0
 13 22  4  0
 16 19  1  0
 16 20  2  0
 17 19  4  0
 17 21  4  0
 19 22  4  0
 20 28  1  0
 25 27  4  0
M  END
$$$$

 Created by Python create_sdf_string function

 28 30  0  0  0  0  0  0  0  0999 V2000
   11.4592   11.2893   18.7941 C   0  0  0  0  0  0  0  0  0  0  0  0
    3.4202    7.9009   20.3866 C   0  0  0  0  0  0  0  0  0  0  0  0
   13.5280   10.3522   19.3586 C   0  0  0  0  0  0  0  0  0  0  0  0
    9.6923    5.6468   22.7891 C   0  0  0  0  0  0  0  0  0  0  0  0
   11.7756   10.2554   20.8841 N   0  0  0  0  0  0  0  0  0  0  0  0
    8.9876   11.9370   19.8757 O   0  0  0  0  0  0  0  0  0  0  0  0
    6.0167    8.4478   21.1089 C   0  0  0  0  0  0  0  0  0  0  0  0
   11.0002   10.8890   20.0262 C   0  0  0  0  0  0  0  0  0  0  0  0
    2.1721    7.7393   20.0315 O   0  0  0  0  0  0  0  0  0  0  0  0
    9.1107   10.3880   21.3769 N   0  0  0  0  0  0  0  0  0  0  0  0
    3.9102    9.2008   20.3124 C   0  0  0  0  0  0  0  0  0  0  0  0
   12.7292   10.9960   18.4597 C   0  0  0  0  0  0  0  0  0  0  0  0
    9.3798    6.6793   23.6625 C   0  0  0  0  0  0  0  0  0  0  0  0
   14.7425   10.0739   19.0802 O   0  0  0  0  0  0  0  0  0  0  0  0
    5.1894    9.4673   20.7118 C   0  0  0  0  0  0  0  0  0  0  0  0
    7.3773    8.8224   21.4870 C   0  0  0  0  0  0  0  0  0  0  0  0
    8.4391    6.6439   21.0235 C   0  0  0  0  0  0  0  0  0  0  0  0
    9.6494   11.1353   20.4167 C   0  0  0  0  0  0  0  0  0  0  0  0
    8.1431    7.6829   21.9046 C   0  0  0  0  0  0  0  0  0  0  0  0
    7.7796   10.1314   21.5115 N   0  0  0  0  0  0  0  0  0  0  0  0
    9.2768    5.6183   21.4437 C   0  0  0  0  0  0  0  0  0  0  0  0
    8.6315    7.7322   23.1768 C   0  0  0  0  0  0  0  0  0  0  0  0
   13.0537    9.9821   20.5781 C   0  0  0  0  0  0  0  0  0  0  0  0
   10.3850    4.6575   23.2386 O   0  0  0  0  0  0  0  0  0  0  0  0
    4.2069    6.8450   20.7994 C   0  0  0  0  0  0  0  0  0  0  0  0
    3.0726   10.1043   19.8522 O   0  0  0  0  0  0  0  0  0  0  0  0
    5.5057    7.1196   21.1155 C   0  0  0  0  0  0  0  0  0  0  0  0
    7.0367   11.0229   21.9948 O   0  0  0  0  0  0  0  0  0  0  0  0
  1  8  4  0
  1 12  4  0
  2  9  1  0
  2 11  4  0
  2 25  4  0
  3 12  4  0
  3 14  1  0
  3 23  4  0
  4 13  4  0
  4 21  4  0
  4 24  1  0
  5  8  4  0
  5 23  4  0
  6 18  2  0
  7 15  4  0
  7 16  1  0
  7 27  4  0
  8 18  1  0
 10 18  1  0
 10 20  1  0
 11 15  4  0
 11 26  1  0
 13 22  4  0
 16 19  1  0
 16 20  2  0
 17 19  4  0
 17 21  4  0
 19 22  4  0
 20 28  1  0
 25 27  4  0
M  END
$$$$

 Created by Python create_sdf_string function

 28 30  0  0  0  0  0  0  0  0999 V2000
   11.4592   11.2893   18.7941 C   0  0  0  0  0  0  0  0  0  0  0  0
    3.4202    7.9009   20.3866 C   0  0  0  0  0  0  0  0  0  0  0  0
   13.5280   10.3522   19.3586 C   0  0  0  0  0  0  0  0  0  0  0  0
    9.6923    5.6468   22.7891 C   0  0  0  0  0  0  0  0  0  0  0  0
   11.7756   10.2554   20.8841 N   0  0  0  0  0  0  0  0  0  0  0  0
    8.9876   11.9370   19.8757 O   0  0  0  0  0  0  0  0  0  0  0  0
    6.0167    8.4478   21.1089 C   0  0  0  0  0  0  0  0  0  0  0  0
   11.0002   10.8890   20.0262 C   0  0  0  0  0  0  0  0  0  0  0  0
    2.1721    7.7393   20.0315 O   0  0  0  0  0  0  0  0  0  0  0  0
    9.1107   10.3880   21.3769 N   0  0  0  0  0  0  0  0  0  0  0  0
    3.9102    9.2008   20.3124 C   0  0  0  0  0  0  0  0  0  0  0  0
   12.7292   10.9960   18.4597 C   0  0  0  0  0  0  0  0  0  0  0  0
    9.3798    6.6793   23.6625 C   0  0  0  0  0  0  0  0  0  0  0  0
   14.7425   10.0739   19.0802 O   0  0  0  0  0  0  0  0  0  0  0  0
    5.1894    9.4673   20.7118 C   0  0  0  0  0  0  0  0  0  0  0  0
    7.3773    8.8224   21.4870 C   0  0  0  0  0  0  0  0  0  0  0  0
    8.4391    6.6439   21.0235 C   0  0  0  0  0  0  0  0  0  0  0  0
    9.6494   11.1353   20.4167 C   0  0  0  0  0  0  0  0  0  0  0  0
    8.1431    7.6829   21.9046 C   0  0  0  0  0  0  0  0  0  0  0  0
    7.7796   10.1314   21.5115 N   0  0  0  0  0  0  0  0  0  0  0  0
    9.2768    5.6183   21.4437 C   0  0  0  0  0  0  0  0  0  0  0  0
    8.6315    7.7322   23.1768 C   0  0  0  0  0  0  0  0  0  0  0  0
   13.0537    9.9821   20.5781 C   0  0  0  0  0  0  0  0  0  0  0  0
   10.3850    4.6575   23.2386 O   0  0  0  0  0  0  0  0  0  0  0  0
    4.2069    6.8450   20.7994 C   0  0  0  0  0  0  0  0  0  0  0  0
    3.0726   10.1043   19.8522 O   0  0  0  0  0  0  0  0  0  0  0  0
    5.5057    7.1196   21.1155 C   0  0  0  0  0  0  0  0  0  0  0  0
    7.0367   11.0229   21.9948 O   0  0  0  0  0  0  0  0  0  0  0  0
  1  8  4  0
  1 12  4  0
  2  9  1  0
  2 11  4  0
  2 25  4  0
  3 12  4  0
  3 14  1  0
  3 23  4  0
  4 13  4  0
  4 21  4  0
  4 24  1  0
  5  8  4  0
  5 23  4  0
  6 18  2  0
  7 15  4  0
  7 16  1  0
  7 27  4  0
  8 18  1  0
 10 18  1  0
 10 20  1  0
 11 15  4  0
 11 26  1  0
 13 22  4  0
 16 19  1  0
 16 20  2  0
 17 19  4  0
 17 21  4  0
 19 22  4  0
 20 28  1  0
 25 27  4  0
M  END
$$$$

 Created by Python create_sdf_string function

 28 30  0  0  0  0  0  0  0  0999 V2000
   11.4592   11.2893   18.7941 C   0  0  0  0  0  0  0  0  0  0  0  0
    3.4202    7.9009   20.3866 C   0  0  0  0  0  0  0  0  0  0  0  0
   13.5280   10.3522   19.3586 C   0  0  0  0  0  0  0  0  0  0  0  0
    9.6923    5.6468   22.7891 C   0  0  0  0  0  0  0  0  0  0  0  0
   11.7756   10.2554   20.8841 N   0  0  0  0  0  0  0  0  0  0  0  0
    8.9876   11.9370   19.8757 O   0  0  0  0  0  0  0  0  0  0  0  0
    6.0167    8.4478   21.1089 C   0  0  0  0  0  0  0  0  0  0  0  0
   11.0002   10.8890   20.0262 C   0  0  0  0  0  0  0  0  0  0  0  0
    2.1721    7.7393   20.0315 O   0  0  0  0  0  0  0  0  0  0  0  0
    9.1107   10.3880   21.3769 N   0  0  0  0  0  0  0  0  0  0  0  0
    3.9102    9.2008   20.3124 C   0  0  0  0  0  0  0  0  0  0  0  0
   12.7292   10.9960   18.4597 C   0  0  0  0  0  0  0  0  0  0  0  0
    9.3798    6.6793   23.6625 C   0  0  0  0  0  0  0  0  0  0  0  0
   14.7425   10.0739   19.0802 O   0  0  0  0  0  0  0  0  0  0  0  0
    5.1894    9.4673   20.7118 C   0  0  0  0  0  0  0  0  0  0  0  0
    7.3773    8.8224   21.4870 C   0  0  0  0  0  0  0  0  0  0  0  0
    8.4391    6.6439   21.0235 C   0  0  0  0  0  0  0  0  0  0  0  0
    9.6494   11.1353   20.4167 C   0  0  0  0  0  0  0  0  0  0  0  0
    8.1431    7.6829   21.9046 C   0  0  0  0  0  0  0  0  0  0  0  0
    7.7796   10.1314   21.5115 N   0  0  0  0  0  0  0  0  0  0  0  0
    9.2768    5.6183   21.4437 C   0  0  0  0  0  0  0  0  0  0  0  0
    8.6315    7.7322   23.1768 C   0  0  0  0  0  0  0  0  0  0  0  0
   13.0537    9.9821   20.5781 C   0  0  0  0  0  0  0  0  0  0  0  0
   10.3850    4.6575   23.2386 O   0  0  0  0  0  0  0  0  0  0  0  0
    4.2069    6.8450   20.7994 C   0  0  0  0  0  0  0  0  0  0  0  0
    3.0726   10.1043   19.8522 O   0  0  0  0  0  0  0  0  0  0  0  0
    5.5057    7.1196   21.1155 C   0  0  0  0  0  0  0  0  0  0  0  0
    7.0367   11.0229   21.9948 O   0  0  0  0  0  0  0  0  0  0  0  0
  1  8  4  0
  1 12  4  0
  2  9  1  0
  2 11  4  0
  2 25  4  0
  3 12  4  0
  3 14  1  0
  3 23  4  0
  4 13  4  0
  4 21  4  0
  4 24  1  0
  5  8  4  0
  5 23  4  0
  6 18  2  0
  7 15  4  0
  7 16  1  0
  7 27  4  0
  8 18  1  0
 10 18  1  0
 10 20  1  0
 11 15  4  0
 11 26  1  0
 13 22  4  0
 16 19  1  0
 16 20  2  0
 17 19  4  0
 17 21  4  0
 19 22  4  0
 20 28  1  0
 25 27  4  0
M  END
$$$$

 Created by Python create_sdf_string function

 28 30  0  0  0  0  0  0  0  0999 V2000
   11.4592   11.2893   18.7941 C   0  0  0  0  0  0  0  0  0  0  0  0
    3.4202    7.9009   20.3866 C   0  0  0  0  0  0  0  0  0  0  0  0
   13.5280   10.3522   19.3586 C   0  0  0  0  0  0  0  0  0  0  0  0
    9.6923    5.6468   22.7891 C   0  0  0  0  0  0  0  0  0  0  0  0
   11.7756   10.2554   20.8841 N   0  0  0  0  0  0  0  0  0  0  0  0
    8.9876   11.9370   19.8757 O   0  0  0  0  0  0  0  0  0  0  0  0
    6.0167    8.4478   21.1089 C   0  0  0  0  0  0  0  0  0  0  0  0
   11.0002   10.8890   20.0262 C   0  0  0  0  0  0  0  0  0  0  0  0
    2.1721    7.7393   20.0315 O   0  0  0  0  0  0  0  0  0  0  0  0
    9.1107   10.3880   21.3769 N   0  0  0  0  0  0  0  0  0  0  0  0
    3.9102    9.2008   20.3124 C   0  0  0  0  0  0  0  0  0  0  0  0
   12.7292   10.9960   18.4597 C   0  0  0  0  0  0  0  0  0  0  0  0
    9.3798    6.6793   23.6625 C   0  0  0  0  0  0  0  0  0  0  0  0
   14.7425   10.0739   19.0802 O   0  0  0  0  0  0  0  0  0  0  0  0
    5.1894    9.4673   20.7118 C   0  0  0  0  0  0  0  0  0  0  0  0
    7.3773    8.8224   21.4870 C   0  0  0  0  0  0  0  0  0  0  0  0
    8.4391    6.6439   21.0235 C   0  0  0  0  0  0  0  0  0  0  0  0
    9.6494   11.1353   20.4167 C   0  0  0  0  0  0  0  0  0  0  0  0
    8.1431    7.6829   21.9046 C   0  0  0  0  0  0  0  0  0  0  0  0
    7.7796   10.1314   21.5115 N   0  0  0  0  0  0  0  0  0  0  0  0
    9.2768    5.6183   21.4437 C   0  0  0  0  0  0  0  0  0  0  0  0
    8.6315    7.7322   23.1768 C   0  0  0  0  0  0  0  0  0  0  0  0
   13.0537    9.9821   20.5781 C   0  0  0  0  0  0  0  0  0  0  0  0
   10.3850    4.6575   23.2386 O   0  0  0  0  0  0  0  0  0  0  0  0
    4.2069    6.8450   20.7994 C   0  0  0  0  0  0  0  0  0  0  0  0
    3.0726   10.1043   19.8522 O   0  0  0  0  0  0  0  0  0  0  0  0
    5.5057    7.1196   21.1155 C   0  0  0  0  0  0  0  0  0  0  0  0
    7.0367   11.0229   21.9948 O   0  0  0  0  0  0  0  0  0  0  0  0
  1  8  4  0
  1 12  4  0
  2  9  1  0
  2 11  4  0
  2 25  4  0
  3 12  4  0
  3 14  1  0
  3 23  4  0
  4 13  4  0
  4 21  4  0
  4 24  1  0
  5  8  4  0
  5 23  4  0
  6 18  2  0
  7 15  4  0
  7 16  1  0
  7 27  4  0
  8 18  1  0
 10 18  1  0
 10 20  1  0
 11 15  4  0
 11 26  1  0
 13 22  4  0
 16 19  1  0
 16 20  2  0
 17 19  4  0
 17 21  4  0
 19 22  4  0
 20 28  1  0
 25 27  4  0
M  END
$$$$

 Created by Python create_sdf_string function

 28 30  0  0  0  0  0  0  0  0999 V2000
   11.4592   11.2893   18.7941 C   0  0  0  0  0  0  0  0  0  0  0  0
    3.4202    7.9009   20.3866 C   0  0  0  0  0  0  0  0  0  0  0  0
   13.5280   10.3522   19.3586 C   0  0  0  0  0  0  0  0  0  0  0  0
    9.6923    5.6468   22.7891 C   0  0  0  0  0  0  0  0  0  0  0  0
   11.7756   10.2554   20.8841 N   0  0  0  0  0  0  0  0  0  0  0  0
    8.9876   11.9370   19.8757 O   0  0  0  0  0  0  0  0  0  0  0  0
    6.0167    8.4478   21.1089 C   0  0  0  0  0  0  0  0  0  0  0  0
   11.0002   10.8890   20.0262 C   0  0  0  0  0  0  0  0  0  0  0  0
    2.1721    7.7393   20.0315 O   0  0  0  0  0  0  0  0  0  0  0  0
    9.1107   10.3880   21.3769 N   0  0  0  0  0  0  0  0  0  0  0  0
    3.9102    9.2008   20.3124 C   0  0  0  0  0  0  0  0  0  0  0  0
   12.7292   10.9960   18.4597 C   0  0  0  0  0  0  0  0  0  0  0  0
    9.3798    6.6793   23.6625 C   0  0  0  0  0  0  0  0  0  0  0  0
   14.7425   10.0739   19.0802 O   0  0  0  0  0  0  0  0  0  0  0  0
    5.1894    9.4673   20.7118 C   0  0  0  0  0  0  0  0  0  0  0  0
    7.3773    8.8224   21.4870 C   0  0  0  0  0  0  0  0  0  0  0  0
    8.4391    6.6439   21.0235 C   0  0  0  0  0  0  0  0  0  0  0  0
    9.6494   11.1353   20.4167 C   0  0  0  0  0  0  0  0  0  0  0  0
    8.1431    7.6829   21.9046 C   0  0  0  0  0  0  0  0  0  0  0  0
    7.7796   10.1314   21.5115 N   0  0  0  0  0  0  0  0  0  0  0  0
    9.2768    5.6183   21.4437 C   0  0  0  0  0  0  0  0  0  0  0  0
    8.6315    7.7322   23.1768 C   0  0  0  0  0  0  0  0  0  0  0  0
   13.0537    9.9821   20.5781 C   0  0  0  0  0  0  0  0  0  0  0  0
   10.3850    4.6575   23.2386 O   0  0  0  0  0  0  0  0  0  0  0  0
    4.2069    6.8450   20.7994 C   0  0  0  0  0  0  0  0  0  0  0  0
    3.0726   10.1043   19.8522 O   0  0  0  0  0  0  0  0  0  0  0  0
    5.5057    7.1196   21.1155 C   0  0  0  0  0  0  0  0  0  0  0  0
    7.0367   11.0229   21.9948 O   0  0  0  0  0  0  0  0  0  0  0  0
  1  8  4  0
  1 12  4  0
  2  9  1  0
  2 11  4  0
  2 25  4  0
  3 12  4  0
  3 14  1  0
  3 23  4  0
  4 13  4  0
  4 21  4  0
  4 24  1  0
  5  8  4  0
  5 23  4  0
  6 18  2  0
  7 15  4  0
  7 16  1  0
  7 27  4  0
  8 18  1  0
 10 18  1  0
 10 20  1  0
 11 15  4  0
 11 26  1  0
 13 22  4  0
 16 19  1  0
 16 20  2  0
 17 19  4  0
 17 21  4  0
 19 22  4  0
 20 28  1  0
 25 27  4  0
M  END
$$$$

 Created by Python create_sdf_string function

 28 30  0  0  0  0  0  0  0  0999 V2000
   11.4592   11.2893   18.7941 C   0  0  0  0  0  0  0  0  0  0  0  0
    3.4202    7.9009   20.3866 C   0  0  0  0  0  0  0  0  0  0  0  0
   13.5280   10.3522   19.3586 C   0  0  0  0  0  0  0  0  0  0  0  0
    9.6923    5.6468   22.7891 C   0  0  0  0  0  0  0  0  0  0  0  0
   11.7756   10.2554   20.8841 N   0  0  0  0  0  0  0  0  0  0  0  0
    8.9876   11.9370   19.8757 O   0  0  0  0  0  0  0  0  0  0  0  0
    6.0167    8.4478   21.1089 C   0  0  0  0  0  0  0  0  0  0  0  0
   11.0002   10.8890   20.0262 C   0  0  0  0  0  0  0  0  0  0  0  0
    2.1721    7.7393   20.0315 O   0  0  0  0  0  0  0  0  0  0  0  0
    9.1107   10.3880   21.3769 N   0  0  0  0  0  0  0  0  0  0  0  0
    3.9102    9.2008   20.3124 C   0  0  0  0  0  0  0  0  0  0  0  0
   12.7292   10.9960   18.4597 C   0  0  0  0  0  0  0  0  0  0  0  0
    9.3798    6.6793   23.6625 C   0  0  0  0  0  0  0  0  0  0  0  0
   14.7425   10.0739   19.0802 O   0  0  0  0  0  0  0  0  0  0  0  0
    5.1894    9.4673   20.7118 C   0  0  0  0  0  0  0  0  0  0  0  0
    7.3773    8.8224   21.4870 C   0  0  0  0  0  0  0  0  0  0  0  0
    8.4391    6.6439   21.0235 C   0  0  0  0  0  0  0  0  0  0  0  0
    9.6494   11.1353   20.4167 C   0  0  0  0  0  0  0  0  0  0  0  0
    8.1431    7.6829   21.9046 C   0  0  0  0  0  0  0  0  0  0  0  0
    7.7796   10.1314   21.5115 N   0  0  0  0  0  0  0  0  0  0  0  0
    9.2768    5.6183   21.4437 C   0  0  0  0  0  0  0  0  0  0  0  0
    8.6315    7.7322   23.1768 C   0  0  0  0  0  0  0  0  0  0  0  0
   13.0537    9.9821   20.5781 C   0  0  0  0  0  0  0  0  0  0  0  0
   10.3850    4.6575   23.2386 O   0  0  0  0  0  0  0  0  0  0  0  0
    4.2069    6.8450   20.7994 C   0  0  0  0  0  0  0  0  0  0  0  0
    3.0726   10.1043   19.8522 O   0  0  0  0  0  0  0  0  0  0  0  0
    5.5057    7.1196   21.1155 C   0  0  0  0  0  0  0  0  0  0  0  0
    7.0367   11.0229   21.9948 O   0  0  0  0  0  0  0  0  0  0  0  0
  1  8  4  0
  1 12  4  0
  2  9  1  0
  2 11  4  0
  2 25  4  0
  3 12  4  0
  3 14  1  0
  3 23  4  0
  4 13  4  0
  4 21  4  0
  4 24  1  0
  5  8  4  0
  5 23  4  0
  6 18  2  0
  7 15  4  0
  7 16  1  0
  7 27  4  0
  8 18  1  0
 10 18  1  0
 10 20  1  0
 11 15  4  0
 11 26  1  0
 13 22  4  0
 16 19  1  0
 16 20  2  0
 17 19  4  0
 17 21  4  0
 19 22  4  0
 20 28  1  0
 25 27  4  0
M  END
$$$$

 Created by Python create_sdf_string function

 28 30  0  0  0  0  0  0  0  0999 V2000
   11.4592   11.2893   18.7941 C   0  0  0  0  0  0  0  0  0  0  0  0
    3.4202    7.9009   20.3866 C   0  0  0  0  0  0  0  0  0  0  0  0
   13.5280   10.3522   19.3586 C   0  0  0  0  0  0  0  0  0  0  0  0
    9.6923    5.6468   22.7891 C   0  0  0  0  0  0  0  0  0  0  0  0
   11.7756   10.2554   20.8841 N   0  0  0  0  0  0  0  0  0  0  0  0
    8.9876   11.9370   19.8757 O   0  0  0  0  0  0  0  0  0  0  0  0
    6.0167    8.4478   21.1089 C   0  0  0  0  0  0  0  0  0  0  0  0
   11.0002   10.8890   20.0262 C   0  0  0  0  0  0  0  0  0  0  0  0
    2.1721    7.7393   20.0315 O   0  0  0  0  0  0  0  0  0  0  0  0
    9.1107   10.3880   21.3769 N   0  0  0  0  0  0  0  0  0  0  0  0
    3.9102    9.2008   20.3124 C   0  0  0  0  0  0  0  0  0  0  0  0
   12.7292   10.9960   18.4597 C   0  0  0  0  0  0  0  0  0  0  0  0
    9.3798    6.6793   23.6625 C   0  0  0  0  0  0  0  0  0  0  0  0
   14.7425   10.0739   19.0802 O   0  0  0  0  0  0  0  0  0  0  0  0
    5.1894    9.4673   20.7118 C   0  0  0  0  0  0  0  0  0  0  0  0
    7.3773    8.8224   21.4870 C   0  0  0  0  0  0  0  0  0  0  0  0
    8.4391    6.6439   21.0235 C   0  0  0  0  0  0  0  0  0  0  0  0
    9.6494   11.1353   20.4167 C   0  0  0  0  0  0  0  0  0  0  0  0
    8.1431    7.6829   21.9046 C   0  0  0  0  0  0  0  0  0  0  0  0
    7.7796   10.1314   21.5115 N   0  0  0  0  0  0  0  0  0  0  0  0
    9.2768    5.6183   21.4437 C   0  0  0  0  0  0  0  0  0  0  0  0
    8.6315    7.7322   23.1768 C   0  0  0  0  0  0  0  0  0  0  0  0
   13.0537    9.9821   20.5781 C   0  0  0  0  0  0  0  0  0  0  0  0
   10.3850    4.6575   23.2386 O   0  0  0  0  0  0  0  0  0  0  0  0
    4.2069    6.8450   20.7994 C   0  0  0  0  0  0  0  0  0  0  0  0
    3.0726   10.1043   19.8522 O   0  0  0  0  0  0  0  0  0  0  0  0
    5.5057    7.1196   21.1155 C   0  0  0  0  0  0  0  0  0  0  0  0
    7.0367   11.0229   21.9948 O   0  0  0  0  0  0  0  0  0  0  0  0
  1  8  4  0
  1 12  4  0
  2  9  1  0
  2 11  4  0
  2 25  4  0
  3 12  4  0
  3 14  1  0
  3 23  4  0
  4 13  4  0
  4 21  4  0
  4 24  1  0
  5  8  4  0
  5 23  4  0
  6 18  2  0
  7 15  4  0
  7 16  1  0
  7 27  4  0
  8 18  1  0
 10 18  1  0
 10 20  1  0
 11 15  4  0
 11 26  1  0
 13 22  4  0
 16 19  1  0
 16 20  2  0
 17 19  4  0
 17 21  4  0
 19 22  4  0
 20 28  1  0
 25 27  4  0
M  END
$$$$

 Created by Python create_sdf_string function

 28 30  0  0  0  0  0  0  0  0999 V2000
   11.4592   11.2893   18.7941 C   0  0  0  0  0  0  0  0  0  0  0  0
    3.4202    7.9009   20.3866 C   0  0  0  0  0  0  0  0  0  0  0  0
   13.5280   10.3522   19.3586 C   0  0  0  0  0  0  0  0  0  0  0  0
    9.6923    5.6468   22.7891 C   0  0  0  0  0  0  0  0  0  0  0  0
   11.7756   10.2554   20.8841 N   0  0  0  0  0  0  0  0  0  0  0  0
    8.9876   11.9370   19.8757 O   0  0  0  0  0  0  0  0  0  0  0  0
    6.0167    8.4478   21.1089 C   0  0  0  0  0  0  0  0  0  0  0  0
   11.0002   10.8890   20.0262 C   0  0  0  0  0  0  0  0  0  0  0  0
    2.1721    7.7393   20.0315 O   0  0  0  0  0  0  0  0  0  0  0  0
    9.1107   10.3880   21.3769 N   0  0  0  0  0  0  0  0  0  0  0  0
    3.9102    9.2008   20.3124 C   0  0  0  0  0  0  0  0  0  0  0  0
   12.7292   10.9960   18.4597 C   0  0  0  0  0  0  0  0  0  0  0  0
    9.3798    6.6793   23.6625 C   0  0  0  0  0  0  0  0  0  0  0  0
   14.7425   10.0739   19.0802 O   0  0  0  0  0  0  0  0  0  0  0  0
    5.1894    9.4673   20.7118 C   0  0  0  0  0  0  0  0  0  0  0  0
    7.3773    8.8224   21.4870 C   0  0  0  0  0  0  0  0  0  0  0  0
    8.4391    6.6439   21.0235 C   0  0  0  0  0  0  0  0  0  0  0  0
    9.6494   11.1353   20.4167 C   0  0  0  0  0  0  0  0  0  0  0  0
    8.1431    7.6829   21.9046 C   0  0  0  0  0  0  0  0  0  0  0  0
    7.7796   10.1314   21.5115 N   0  0  0  0  0  0  0  0  0  0  0  0
    9.2768    5.6183   21.4437 C   0  0  0  0  0  0  0  0  0  0  0  0
    8.6315    7.7322   23.1768 C   0  0  0  0  0  0  0  0  0  0  0  0
   13.0537    9.9821   20.5781 C   0  0  0  0  0  0  0  0  0  0  0  0
   10.3850    4.6575   23.2386 O   0  0  0  0  0  0  0  0  0  0  0  0
    4.2069    6.8450   20.7994 C   0  0  0  0  0  0  0  0  0  0  0  0
    3.0726   10.1043   19.8522 O   0  0  0  0  0  0  0  0  0  0  0  0
    5.5057    7.1196   21.1155 C   0  0  0  0  0  0  0  0  0  0  0  0
    7.0367   11.0229   21.9948 O   0  0  0  0  0  0  0  0  0  0  0  0
  1  8  4  0
  1 12  4  0
  2  9  1  0
  2 11  4  0
  2 25  4  0
  3 12  4  0
  3 14  1  0
  3 23  4  0
  4 13  4  0
  4 21  4  0
  4 24  1  0
  5  8  4  0
  5 23  4  0
  6 18  2  0
  7 15  4  0
  7 16  1  0
  7 27  4  0
  8 18  1  0
 10 18  1  0
 10 20  1  0
 11 15  4  0
 11 26  1  0
 13 22  4  0
 16 19  1  0
 16 20  2  0
 17 19  4  0
 17 21  4  0
 19 22  4  0
 20 28  1  0
 25 27  4  0
M  END
$$$$

 Created by Python create_sdf_string function

 28 30  0  0  0  0  0  0  0  0999 V2000
   11.4592   11.2893   18.7941 C   0  0  0  0  0  0  0  0  0  0  0  0
    3.4202    7.9009   20.3866 C   0  0  0  0  0  0  0  0  0  0  0  0
   13.5280   10.3522   19.3586 C   0  0  0  0  0  0  0  0  0  0  0  0
    9.6923    5.6468   22.7891 C   0  0  0  0  0  0  0  0  0  0  0  0
   11.7756   10.2554   20.8841 N   0  0  0  0  0  0  0  0  0  0  0  0
    8.9876   11.9370   19.8757 O   0  0  0  0  0  0  0  0  0  0  0  0
    6.0167    8.4478   21.1089 C   0  0  0  0  0  0  0  0  0  0  0  0
   11.0002   10.8890   20.0262 C   0  0  0  0  0  0  0  0  0  0  0  0
    2.1721    7.7393   20.0315 O   0  0  0  0  0  0  0  0  0  0  0  0
    9.1107   10.3880   21.3769 N   0  0  0  0  0  0  0  0  0  0  0  0
    3.9102    9.2008   20.3124 C   0  0  0  0  0  0  0  0  0  0  0  0
   12.7292   10.9960   18.4597 C   0  0  0  0  0  0  0  0  0  0  0  0
    9.3798    6.6793   23.6625 C   0  0  0  0  0  0  0  0  0  0  0  0
   14.7425   10.0739   19.0802 O   0  0  0  0  0  0  0  0  0  0  0  0
    5.1894    9.4673   20.7118 C   0  0  0  0  0  0  0  0  0  0  0  0
    7.3773    8.8224   21.4870 C   0  0  0  0  0  0  0  0  0  0  0  0
    8.4391    6.6439   21.0235 C   0  0  0  0  0  0  0  0  0  0  0  0
    9.6494   11.1353   20.4167 C   0  0  0  0  0  0  0  0  0  0  0  0
    8.1431    7.6829   21.9046 C   0  0  0  0  0  0  0  0  0  0  0  0
    7.7796   10.1314   21.5115 N   0  0  0  0  0  0  0  0  0  0  0  0
    9.2768    5.6183   21.4437 C   0  0  0  0  0  0  0  0  0  0  0  0
    8.6315    7.7322   23.1768 C   0  0  0  0  0  0  0  0  0  0  0  0
   13.0537    9.9821   20.5781 C   0  0  0  0  0  0  0  0  0  0  0  0
   10.3850    4.6575   23.2386 O   0  0  0  0  0  0  0  0  0  0  0  0
    4.2069    6.8450   20.7994 C   0  0  0  0  0  0  0  0  0  0  0  0
    3.0726   10.1043   19.8522 O   0  0  0  0  0  0  0  0  0  0  0  0
    5.5057    7.1196   21.1155 C   0  0  0  0  0  0  0  0  0  0  0  0
    7.0367   11.0229   21.9948 O   0  0  0  0  0  0  0  0  0  0  0  0
  1  8  4  0
  1 12  4  0
  2  9  1  0
  2 11  4  0
  2 25  4  0
  3 12  4  0
  3 14  1  0
  3 23  4  0
  4 13  4  0
  4 21  4  0
  4 24  1  0
  5  8  4  0
  5 23  4  0
  6 18  2  0
  7 15  4  0
  7 16  1  0
  7 27  4  0
  8 18  1  0
 10 18  1  0
 10 20  1  0
 11 15  4  0
 11 26  1  0
 13 22  4  0
 16 19  1  0
 16 20  2  0
 17 19  4  0
 17 21  4  0
 19 22  4  0
 20 28  1  0
 25 27  4  0
M  END
$$$$

 Created by Python create_sdf_string function

 28 30  0  0  0  0  0  0  0  0999 V2000
   11.4592   11.2893   18.7941 C   0  0  0  0  0  0  0  0  0  0  0  0
    3.4202    7.9009   20.3866 C   0  0  0  0  0  0  0  0  0  0  0  0
   13.5280   10.3522   19.3586 C   0  0  0  0  0  0  0  0  0  0  0  0
    9.6923    5.6468   22.7891 C   0  0  0  0  0  0  0  0  0  0  0  0
   11.7756   10.2554   20.8841 N   0  0  0  0  0  0  0  0  0  0  0  0
    8.9876   11.9370   19.8757 O   0  0  0  0  0  0  0  0  0  0  0  0
    6.0167    8.4478   21.1089 C   0  0  0  0  0  0  0  0  0  0  0  0
   11.0002   10.8890   20.0262 C   0  0  0  0  0  0  0  0  0  0  0  0
    2.1721    7.7393   20.0315 O   0  0  0  0  0  0  0  0  0  0  0  0
    9.1107   10.3880   21.3769 N   0  0  0  0  0  0  0  0  0  0  0  0
    3.9102    9.2008   20.3124 C   0  0  0  0  0  0  0  0  0  0  0  0
   12.7292   10.9960   18.4597 C   0  0  0  0  0  0  0  0  0  0  0  0
    9.3798    6.6793   23.6625 C   0  0  0  0  0  0  0  0  0  0  0  0
   14.7425   10.0739   19.0802 O   0  0  0  0  0  0  0  0  0  0  0  0
    5.1894    9.4673   20.7118 C   0  0  0  0  0  0  0  0  0  0  0  0
    7.3773    8.8224   21.4870 C   0  0  0  0  0  0  0  0  0  0  0  0
    8.4391    6.6439   21.0235 C   0  0  0  0  0  0  0  0  0  0  0  0
    9.6494   11.1353   20.4167 C   0  0  0  0  0  0  0  0  0  0  0  0
    8.1431    7.6829   21.9046 C   0  0  0  0  0  0  0  0  0  0  0  0
    7.7796   10.1314   21.5115 N   0  0  0  0  0  0  0  0  0  0  0  0
    9.2768    5.6183   21.4437 C   0  0  0  0  0  0  0  0  0  0  0  0
    8.6315    7.7322   23.1768 C   0  0  0  0  0  0  0  0  0  0  0  0
   13.0537    9.9821   20.5781 C   0  0  0  0  0  0  0  0  0  0  0  0
   10.3850    4.6575   23.2386 O   0  0  0  0  0  0  0  0  0  0  0  0
    4.2069    6.8450   20.7994 C   0  0  0  0  0  0  0  0  0  0  0  0
    3.0726   10.1043   19.8522 O   0  0  0  0  0  0  0  0  0  0  0  0
    5.5057    7.1196   21.1155 C   0  0  0  0  0  0  0  0  0  0  0  0
    7.0367   11.0229   21.9948 O   0  0  0  0  0  0  0  0  0  0  0  0
  1  8  4  0
  1 12  4  0
  2  9  1  0
  2 11  4  0
  2 25  4  0
  3 12  4  0
  3 14  1  0
  3 23  4  0
  4 13  4  0
  4 21  4  0
  4 24  1  0
  5  8  4  0
  5 23  4  0
  6 18  2  0
  7 15  4  0
  7 16  1  0
  7 27  4  0
  8 18  1  0
 10 18  1  0
 10 20  1  0
 11 15  4  0
 11 26  1  0
 13 22  4  0
 16 19  1  0
 16 20  2  0
 17 19  4  0
 17 21  4  0
 19 22  4  0
 20 28  1  0
 25 27  4  0
M  END
$$$$

 Created by Python create_sdf_string function

 28 30  0  0  0  0  0  0  0  0999 V2000
   11.4592   11.2893   18.7941 C   0  0  0  0  0  0  0  0  0  0  0  0
    3.4202    7.9009   20.3866 C   0  0  0  0  0  0  0  0  0  0  0  0
   13.5280   10.3522   19.3586 C   0  0  0  0  0  0  0  0  0  0  0  0
    9.6923    5.6468   22.7891 C   0  0  0  0  0  0  0  0  0  0  0  0
   11.7756   10.2554   20.8841 N   0  0  0  0  0  0  0  0  0  0  0  0
    8.9876   11.9370   19.8757 O   0  0  0  0  0  0  0  0  0  0  0  0
    6.0167    8.4478   21.1089 C   0  0  0  0  0  0  0  0  0  0  0  0
   11.0002   10.8890   20.0262 C   0  0  0  0  0  0  0  0  0  0  0  0
    2.1721    7.7393   20.0315 O   0  0  0  0  0  0  0  0  0  0  0  0
    9.1107   10.3880   21.3769 N   0  0  0  0  0  0  0  0  0  0  0  0
    3.9102    9.2008   20.3124 C   0  0  0  0  0  0  0  0  0  0  0  0
   12.7292   10.9960   18.4597 C   0  0  0  0  0  0  0  0  0  0  0  0
    9.3798    6.6793   23.6625 C   0  0  0  0  0  0  0  0  0  0  0  0
   14.7425   10.0739   19.0802 O   0  0  0  0  0  0  0  0  0  0  0  0
    5.1894    9.4673   20.7118 C   0  0  0  0  0  0  0  0  0  0  0  0
    7.3773    8.8224   21.4870 C   0  0  0  0  0  0  0  0  0  0  0  0
    8.4391    6.6439   21.0235 C   0  0  0  0  0  0  0  0  0  0  0  0
    9.6494   11.1353   20.4167 C   0  0  0  0  0  0  0  0  0  0  0  0
    8.1431    7.6829   21.9046 C   0  0  0  0  0  0  0  0  0  0  0  0
    7.7796   10.1314   21.5115 N   0  0  0  0  0  0  0  0  0  0  0  0
    9.2768    5.6183   21.4437 C   0  0  0  0  0  0  0  0  0  0  0  0
    8.6315    7.7322   23.1768 C   0  0  0  0  0  0  0  0  0  0  0  0
   13.0537    9.9821   20.5781 C   0  0  0  0  0  0  0  0  0  0  0  0
   10.3850    4.6575   23.2386 O   0  0  0  0  0  0  0  0  0  0  0  0
    4.2069    6.8450   20.7994 C   0  0  0  0  0  0  0  0  0  0  0  0
    3.0726   10.1043   19.8522 O   0  0  0  0  0  0  0  0  0  0  0  0
    5.5057    7.1196   21.1155 C   0  0  0  0  0  0  0  0  0  0  0  0
    7.0367   11.0229   21.9948 O   0  0  0  0  0  0  0  0  0  0  0  0
  1  8  4  0
  1 12  4  0
  2  9  1  0
  2 11  4  0
  2 25  4  0
  3 12  4  0
  3 14  1  0
  3 23  4  0
  4 13  4  0
  4 21  4  0
  4 24  1  0
  5  8  4  0
  5 23  4  0
  6 18  2  0
  7 15  4  0
  7 16  1  0
  7 27  4  0
  8 18  1  0
 10 18  1  0
 10 20  1  0
 11 15  4  0
 11 26  1  0
 13 22  4  0
 16 19  1  0
 16 20  2  0
 17 19  4  0
 17 21  4  0
 19 22  4  0
 20 28  1  0
 25 27  4  0
M  END
$$$$

 Created by Python create_sdf_string function

 28 30  0  0  0  0  0  0  0  0999 V2000
   11.4592   11.2893   18.7941 C   0  0  0  0  0  0  0  0  0  0  0  0
    3.4202    7.9009   20.3866 C   0  0  0  0  0  0  0  0  0  0  0  0
   13.5280   10.3522   19.3586 C   0  0  0  0  0  0  0  0  0  0  0  0
    9.6923    5.6468   22.7891 C   0  0  0  0  0  0  0  0  0  0  0  0
   11.7756   10.2554   20.8841 N   0  0  0  0  0  0  0  0  0  0  0  0
    8.9876   11.9370   19.8757 O   0  0  0  0  0  0  0  0  0  0  0  0
    6.0167    8.4478   21.1089 C   0  0  0  0  0  0  0  0  0  0  0  0
   11.0002   10.8890   20.0262 C   0  0  0  0  0  0  0  0  0  0  0  0
    2.1721    7.7393   20.0315 O   0  0  0  0  0  0  0  0  0  0  0  0
    9.1107   10.3880   21.3769 N   0  0  0  0  0  0  0  0  0  0  0  0
    3.9102    9.2008   20.3124 C   0  0  0  0  0  0  0  0  0  0  0  0
   12.7292   10.9960   18.4597 C   0  0  0  0  0  0  0  0  0  0  0  0
    9.3798    6.6793   23.6625 C   0  0  0  0  0  0  0  0  0  0  0  0
   14.7425   10.0739   19.0802 O   0  0  0  0  0  0  0  0  0  0  0  0
    5.1894    9.4673   20.7118 C   0  0  0  0  0  0  0  0  0  0  0  0
    7.3773    8.8224   21.4870 C   0  0  0  0  0  0  0  0  0  0  0  0
    8.4391    6.6439   21.0235 C   0  0  0  0  0  0  0  0  0  0  0  0
    9.6494   11.1353   20.4167 C   0  0  0  0  0  0  0  0  0  0  0  0
    8.1431    7.6829   21.9046 C   0  0  0  0  0  0  0  0  0  0  0  0
    7.7796   10.1314   21.5115 N   0  0  0  0  0  0  0  0  0  0  0  0
    9.2768    5.6183   21.4437 C   0  0  0  0  0  0  0  0  0  0  0  0
    8.6315    7.7322   23.1768 C   0  0  0  0  0  0  0  0  0  0  0  0
   13.0537    9.9821   20.5781 C   0  0  0  0  0  0  0  0  0  0  0  0
   10.3850    4.6575   23.2386 O   0  0  0  0  0  0  0  0  0  0  0  0
    4.2069    6.8450   20.7994 C   0  0  0  0  0  0  0  0  0  0  0  0
    3.0726   10.1043   19.8522 O   0  0  0  0  0  0  0  0  0  0  0  0
    5.5057    7.1196   21.1155 C   0  0  0  0  0  0  0  0  0  0  0  0
    7.0367   11.0229   21.9948 O   0  0  0  0  0  0  0  0  0  0  0  0
  1  8  4  0
  1 12  4  0
  2  9  1  0
  2 11  4  0
  2 25  4  0
  3 12  4  0
  3 14  1  0
  3 23  4  0
  4 13  4  0
  4 21  4  0
  4 24  1  0
  5  8  4  0
  5 23  4  0
  6 18  2  0
  7 15  4  0
  7 16  1  0
  7 27  4  0
  8 18  1  0
 10 18  1  0
 10 20  1  0
 11 15  4  0
 11 26  1  0
 13 22  4  0
 16 19  1  0
 16 20  2  0
 17 19  4  0
 17 21  4  0
 19 22  4  0
 20 28  1  0
 25 27  4  0
M  END
$$$$

 Created by Python create_sdf_string function

 28 30  0  0  0  0  0  0  0  0999 V2000
   11.4592   11.2893   18.7941 C   0  0  0  0  0  0  0  0  0  0  0  0
    3.4202    7.9009   20.3866 C   0  0  0  0  0  0  0  0  0  0  0  0
   13.5280   10.3522   19.3586 C   0  0  0  0  0  0  0  0  0  0  0  0
    9.6923    5.6468   22.7891 C   0  0  0  0  0  0  0  0  0  0  0  0
   11.7756   10.2554   20.8841 N   0  0  0  0  0  0  0  0  0  0  0  0
    8.9876   11.9370   19.8757 O   0  0  0  0  0  0  0  0  0  0  0  0
    6.0167    8.4478   21.1089 C   0  0  0  0  0  0  0  0  0  0  0  0
   11.0002   10.8890   20.0262 C   0  0  0  0  0  0  0  0  0  0  0  0
    2.1721    7.7393   20.0315 O   0  0  0  0  0  0  0  0  0  0  0  0
    9.1107   10.3880   21.3769 N   0  0  0  0  0  0  0  0  0  0  0  0
    3.9102    9.2008   20.3124 C   0  0  0  0  0  0  0  0  0  0  0  0
   12.7292   10.9960   18.4597 C   0  0  0  0  0  0  0  0  0  0  0  0
    9.3798    6.6793   23.6625 C   0  0  0  0  0  0  0  0  0  0  0  0
   14.7425   10.0739   19.0802 O   0  0  0  0  0  0  0  0  0  0  0  0
    5.1894    9.4673   20.7118 C   0  0  0  0  0  0  0  0  0  0  0  0
    7.3773    8.8224   21.4870 C   0  0  0  0  0  0  0  0  0  0  0  0
    8.4391    6.6439   21.0235 C   0  0  0  0  0  0  0  0  0  0  0  0
    9.6494   11.1353   20.4167 C   0  0  0  0  0  0  0  0  0  0  0  0
    8.1431    7.6829   21.9046 C   0  0  0  0  0  0  0  0  0  0  0  0
    7.7796   10.1314   21.5115 N   0  0  0  0  0  0  0  0  0  0  0  0
    9.2768    5.6183   21.4437 C   0  0  0  0  0  0  0  0  0  0  0  0
    8.6315    7.7322   23.1768 C   0  0  0  0  0  0  0  0  0  0  0  0
   13.0537    9.9821   20.5781 C   0  0  0  0  0  0  0  0  0  0  0  0
   10.3850    4.6575   23.2386 O   0  0  0  0  0  0  0  0  0  0  0  0
    4.2069    6.8450   20.7994 C   0  0  0  0  0  0  0  0  0  0  0  0
    3.0726   10.1043   19.8522 O   0  0  0  0  0  0  0  0  0  0  0  0
    5.5057    7.1196   21.1155 C   0  0  0  0  0  0  0  0  0  0  0  0
    7.0367   11.0229   21.9948 O   0  0  0  0  0  0  0  0  0  0  0  0
  1  8  4  0
  1 12  4  0
  2  9  1  0
  2 11  4  0
  2 25  4  0
  3 12  4  0
  3 14  1  0
  3 23  4  0
  4 13  4  0
  4 21  4  0
  4 24  1  0
  5  8  4  0
  5 23  4  0
  6 18  2  0
  7 15  4  0
  7 16  1  0
  7 27  4  0
  8 18  1  0
 10 18  1  0
 10 20  1  0
 11 15  4  0
 11 26  1  0
 13 22  4  0
 16 19  1  0
 16 20  2  0
 17 19  4  0
 17 21  4  0
 19 22  4  0
 20 28  1  0
 25 27  4  0
M  END
$$$$

 Created by Python create_sdf_string function

 28 30  0  0  0  0  0  0  0  0999 V2000
   11.4592   11.2893   18.7941 C   0  0  0  0  0  0  0  0  0  0  0  0
    3.4202    7.9009   20.3866 C   0  0  0  0  0  0  0  0  0  0  0  0
   13.5280   10.3522   19.3586 C   0  0  0  0  0  0  0  0  0  0  0  0
    9.6923    5.6468   22.7891 C   0  0  0  0  0  0  0  0  0  0  0  0
   11.7756   10.2554   20.8841 N   0  0  0  0  0  0  0  0  0  0  0  0
    8.9876   11.9370   19.8757 O   0  0  0  0  0  0  0  0  0  0  0  0
    6.0167    8.4478   21.1089 C   0  0  0  0  0  0  0  0  0  0  0  0
   11.0002   10.8890   20.0262 C   0  0  0  0  0  0  0  0  0  0  0  0
    2.1721    7.7393   20.0315 O   0  0  0  0  0  0  0  0  0  0  0  0
    9.1107   10.3880   21.3769 N   0  0  0  0  0  0  0  0  0  0  0  0
    3.9102    9.2008   20.3124 C   0  0  0  0  0  0  0  0  0  0  0  0
   12.7292   10.9960   18.4597 C   0  0  0  0  0  0  0  0  0  0  0  0
    9.3798    6.6793   23.6625 C   0  0  0  0  0  0  0  0  0  0  0  0
   14.7425   10.0739   19.0802 O   0  0  0  0  0  0  0  0  0  0  0  0
    5.1894    9.4673   20.7118 C   0  0  0  0  0  0  0  0  0  0  0  0
    7.3773    8.8224   21.4870 C   0  0  0  0  0  0  0  0  0  0  0  0
    8.4391    6.6439   21.0235 C   0  0  0  0  0  0  0  0  0  0  0  0
    9.6494   11.1353   20.4167 C   0  0  0  0  0  0  0  0  0  0  0  0
    8.1431    7.6829   21.9046 C   0  0  0  0  0  0  0  0  0  0  0  0
    7.7796   10.1314   21.5115 N   0  0  0  0  0  0  0  0  0  0  0  0
    9.2768    5.6183   21.4437 C   0  0  0  0  0  0  0  0  0  0  0  0
    8.6315    7.7322   23.1768 C   0  0  0  0  0  0  0  0  0  0  0  0
   13.0537    9.9821   20.5781 C   0  0  0  0  0  0  0  0  0  0  0  0
   10.3850    4.6575   23.2386 O   0  0  0  0  0  0  0  0  0  0  0  0
    4.2069    6.8450   20.7994 C   0  0  0  0  0  0  0  0  0  0  0  0
    3.0726   10.1043   19.8522 O   0  0  0  0  0  0  0  0  0  0  0  0
    5.5057    7.1196   21.1155 C   0  0  0  0  0  0  0  0  0  0  0  0
    7.0367   11.0229   21.9948 O   0  0  0  0  0  0  0  0  0  0  0  0
  1  8  4  0
  1 12  4  0
  2  9  1  0
  2 11  4  0
  2 25  4  0
  3 12  4  0
  3 14  1  0
  3 23  4  0
  4 13  4  0
  4 21  4  0
  4 24  1  0
  5  8  4  0
  5 23  4  0
  6 18  2  0
  7 15  4  0
  7 16  1  0
  7 27  4  0
  8 18  1  0
 10 18  1  0
 10 20  1  0
 11 15  4  0
 11 26  1  0
 13 22  4  0
 16 19  1  0
 16 20  2  0
 17 19  4  0
 17 21  4  0
 19 22  4  0
 20 28  1  0
 25 27  4  0
M  END
$$$$

 Created by Python create_sdf_string function

 28 30  0  0  0  0  0  0  0  0999 V2000
   11.4592   11.2893   18.7941 C   0  0  0  0  0  0  0  0  0  0  0  0
    3.4202    7.9009   20.3866 C   0  0  0  0  0  0  0  0  0  0  0  0
   13.5280   10.3522   19.3586 C   0  0  0  0  0  0  0  0  0  0  0  0
    9.6923    5.6468   22.7891 C   0  0  0  0  0  0  0  0  0  0  0  0
   11.7756   10.2554   20.8841 N   0  0  0  0  0  0  0  0  0  0  0  0
    8.9876   11.9370   19.8757 O   0  0  0  0  0  0  0  0  0  0  0  0
    6.0167    8.4478   21.1089 C   0  0  0  0  0  0  0  0  0  0  0  0
   11.0002   10.8890   20.0262 C   0  0  0  0  0  0  0  0  0  0  0  0
    2.1721    7.7393   20.0315 O   0  0  0  0  0  0  0  0  0  0  0  0
    9.1107   10.3880   21.3769 N   0  0  0  0  0  0  0  0  0  0  0  0
    3.9102    9.2008   20.3124 C   0  0  0  0  0  0  0  0  0  0  0  0
   12.7292   10.9960   18.4597 C   0  0  0  0  0  0  0  0  0  0  0  0
    9.3798    6.6793   23.6625 C   0  0  0  0  0  0  0  0  0  0  0  0
   14.7425   10.0739   19.0802 O   0  0  0  0  0  0  0  0  0  0  0  0
    5.1894    9.4673   20.7118 C   0  0  0  0  0  0  0  0  0  0  0  0
    7.3773    8.8224   21.4870 C   0  0  0  0  0  0  0  0  0  0  0  0
    8.4391    6.6439   21.0235 C   0  0  0  0  0  0  0  0  0  0  0  0
    9.6494   11.1353   20.4167 C   0  0  0  0  0  0  0  0  0  0  0  0
    8.1431    7.6829   21.9046 C   0  0  0  0  0  0  0  0  0  0  0  0
    7.7796   10.1314   21.5115 N   0  0  0  0  0  0  0  0  0  0  0  0
    9.2768    5.6183   21.4437 C   0  0  0  0  0  0  0  0  0  0  0  0
    8.6315    7.7322   23.1768 C   0  0  0  0  0  0  0  0  0  0  0  0
   13.0537    9.9821   20.5781 C   0  0  0  0  0  0  0  0  0  0  0  0
   10.3850    4.6575   23.2386 O   0  0  0  0  0  0  0  0  0  0  0  0
    4.2069    6.8450   20.7994 C   0  0  0  0  0  0  0  0  0  0  0  0
    3.0726   10.1043   19.8522 O   0  0  0  0  0  0  0  0  0  0  0  0
    5.5057    7.1196   21.1155 C   0  0  0  0  0  0  0  0  0  0  0  0
    7.0367   11.0229   21.9948 O   0  0  0  0  0  0  0  0  0  0  0  0
  1  8  4  0
  1 12  4  0
  2  9  1  0
  2 11  4  0
  2 25  4  0
  3 12  4  0
  3 14  1  0
  3 23  4  0
  4 13  4  0
  4 21  4  0
  4 24  1  0
  5  8  4  0
  5 23  4  0
  6 18  2  0
  7 15  4  0
  7 16  1  0
  7 27  4  0
  8 18  1  0
 10 18  1  0
 10 20  1  0
 11 15  4  0
 11 26  1  0
 13 22  4  0
 16 19  1  0
 16 20  2  0
 17 19  4  0
 17 21  4  0
 19 22  4  0
 20 28  1  0
 25 27  4  0
M  END
$$$$

 Created by Python create_sdf_string function

 28 30  0  0  0  0  0  0  0  0999 V2000
   11.4592   11.2893   18.7941 C   0  0  0  0  0  0  0  0  0  0  0  0
    3.4202    7.9009   20.3866 C   0  0  0  0  0  0  0  0  0  0  0  0
   13.5280   10.3522   19.3586 C   0  0  0  0  0  0  0  0  0  0  0  0
    9.6923    5.6468   22.7891 C   0  0  0  0  0  0  0  0  0  0  0  0
   11.7756   10.2554   20.8841 N   0  0  0  0  0  0  0  0  0  0  0  0
    8.9876   11.9370   19.8757 O   0  0  0  0  0  0  0  0  0  0  0  0
    6.0167    8.4478   21.1089 C   0  0  0  0  0  0  0  0  0  0  0  0
   11.0002   10.8890   20.0262 C   0  0  0  0  0  0  0  0  0  0  0  0
    2.1721    7.7393   20.0315 O   0  0  0  0  0  0  0  0  0  0  0  0
    9.1107   10.3880   21.3769 N   0  0  0  0  0  0  0  0  0  0  0  0
    3.9102    9.2008   20.3124 C   0  0  0  0  0  0  0  0  0  0  0  0
   12.7292   10.9960   18.4597 C   0  0  0  0  0  0  0  0  0  0  0  0
    9.3798    6.6793   23.6625 C   0  0  0  0  0  0  0  0  0  0  0  0
   14.7425   10.0739   19.0802 O   0  0  0  0  0  0  0  0  0  0  0  0
    5.1894    9.4673   20.7118 C   0  0  0  0  0  0  0  0  0  0  0  0
    7.3773    8.8224   21.4870 C   0  0  0  0  0  0  0  0  0  0  0  0
    8.4391    6.6439   21.0235 C   0  0  0  0  0  0  0  0  0  0  0  0
    9.6494   11.1353   20.4167 C   0  0  0  0  0  0  0  0  0  0  0  0
    8.1431    7.6829   21.9046 C   0  0  0  0  0  0  0  0  0  0  0  0
    7.7796   10.1314   21.5115 N   0  0  0  0  0  0  0  0  0  0  0  0
    9.2768    5.6183   21.4437 C   0  0  0  0  0  0  0  0  0  0  0  0
    8.6315    7.7322   23.1768 C   0  0  0  0  0  0  0  0  0  0  0  0
   13.0537    9.9821   20.5781 C   0  0  0  0  0  0  0  0  0  0  0  0
   10.3850    4.6575   23.2386 O   0  0  0  0  0  0  0  0  0  0  0  0
    4.2069    6.8450   20.7994 C   0  0  0  0  0  0  0  0  0  0  0  0
    3.0726   10.1043   19.8522 O   0  0  0  0  0  0  0  0  0  0  0  0
    5.5057    7.1196   21.1155 C   0  0  0  0  0  0  0  0  0  0  0  0
    7.0367   11.0229   21.9948 O   0  0  0  0  0  0  0  0  0  0  0  0
  1  8  4  0
  1 12  4  0
  2  9  1  0
  2 11  4  0
  2 25  4  0
  3 12  4  0
  3 14  1  0
  3 23  4  0
  4 13  4  0
  4 21  4  0
  4 24  1  0
  5  8  4  0
  5 23  4  0
  6 18  2  0
  7 15  4  0
  7 16  1  0
  7 27  4  0
  8 18  1  0
 10 18  1  0
 10 20  1  0
 11 15  4  0
 11 26  1  0
 13 22  4  0
 16 19  1  0
 16 20  2  0
 17 19  4  0
 17 21  4  0
 19 22  4  0
 20 28  1  0
 25 27  4  0
M  END
$$$$

 Created by Python create_sdf_string function

 28 30  0  0  0  0  0  0  0  0999 V2000
   11.4592   11.2893   18.7941 C   0  0  0  0  0  0  0  0  0  0  0  0
    3.4202    7.9009   20.3866 C   0  0  0  0  0  0  0  0  0  0  0  0
   13.5280   10.3522   19.3586 C   0  0  0  0  0  0  0  0  0  0  0  0
    9.6923    5.6468   22.7891 C   0  0  0  0  0  0  0  0  0  0  0  0
   11.7756   10.2554   20.8841 N   0  0  0  0  0  0  0  0  0  0  0  0
    8.9876   11.9370   19.8757 O   0  0  0  0  0  0  0  0  0  0  0  0
    6.0167    8.4478   21.1089 C   0  0  0  0  0  0  0  0  0  0  0  0
   11.0002   10.8890   20.0262 C   0  0  0  0  0  0  0  0  0  0  0  0
    2.1721    7.7393   20.0315 O   0  0  0  0  0  0  0  0  0  0  0  0
    9.1107   10.3880   21.3769 N   0  0  0  0  0  0  0  0  0  0  0  0
    3.9102    9.2008   20.3124 C   0  0  0  0  0  0  0  0  0  0  0  0
   12.7292   10.9960   18.4597 C   0  0  0  0  0  0  0  0  0  0  0  0
    9.3798    6.6793   23.6625 C   0  0  0  0  0  0  0  0  0  0  0  0
   14.7425   10.0739   19.0802 O   0  0  0  0  0  0  0  0  0  0  0  0
    5.1894    9.4673   20.7118 C   0  0  0  0  0  0  0  0  0  0  0  0
    7.3773    8.8224   21.4870 C   0  0  0  0  0  0  0  0  0  0  0  0
    8.4391    6.6439   21.0235 C   0  0  0  0  0  0  0  0  0  0  0  0
    9.6494   11.1353   20.4167 C   0  0  0  0  0  0  0  0  0  0  0  0
    8.1431    7.6829   21.9046 C   0  0  0  0  0  0  0  0  0  0  0  0
    7.7796   10.1314   21.5115 N   0  0  0  0  0  0  0  0  0  0  0  0
    9.2768    5.6183   21.4437 C   0  0  0  0  0  0  0  0  0  0  0  0
    8.6315    7.7322   23.1768 C   0  0  0  0  0  0  0  0  0  0  0  0
   13.0537    9.9821   20.5781 C   0  0  0  0  0  0  0  0  0  0  0  0
   10.3850    4.6575   23.2386 O   0  0  0  0  0  0  0  0  0  0  0  0
    4.2069    6.8450   20.7994 C   0  0  0  0  0  0  0  0  0  0  0  0
    3.0726   10.1043   19.8522 O   0  0  0  0  0  0  0  0  0  0  0  0
    5.5057    7.1196   21.1155 C   0  0  0  0  0  0  0  0  0  0  0  0
    7.0367   11.0229   21.9948 O   0  0  0  0  0  0  0  0  0  0  0  0
  1  8  4  0
  1 12  4  0
  2  9  1  0
  2 11  4  0
  2 25  4  0
  3 12  4  0
  3 14  1  0
  3 23  4  0
  4 13  4  0
  4 21  4  0
  4 24  1  0
  5  8  4  0
  5 23  4  0
  6 18  2  0
  7 15  4  0
  7 16  1  0
  7 27  4  0
  8 18  1  0
 10 18  1  0
 10 20  1  0
 11 15  4  0
 11 26  1  0
 13 22  4  0
 16 19  1  0
 16 20  2  0
 17 19  4  0
 17 21  4  0
 19 22  4  0
 20 28  1  0
 25 27  4  0
M  END
$$$$

 Created by Python create_sdf_string function

 28 30  0  0  0  0  0  0  0  0999 V2000
   11.4592   11.2893   18.7941 C   0  0  0  0  0  0  0  0  0  0  0  0
    3.4202    7.9009   20.3866 C   0  0  0  0  0  0  0  0  0  0  0  0
   13.5280   10.3522   19.3586 C   0  0  0  0  0  0  0  0  0  0  0  0
    9.6923    5.6468   22.7891 C   0  0  0  0  0  0  0  0  0  0  0  0
   11.7756   10.2554   20.8841 N   0  0  0  0  0  0  0  0  0  0  0  0
    8.9876   11.9370   19.8757 O   0  0  0  0  0  0  0  0  0  0  0  0
    6.0167    8.4478   21.1089 C   0  0  0  0  0  0  0  0  0  0  0  0
   11.0002   10.8890   20.0262 C   0  0  0  0  0  0  0  0  0  0  0  0
    2.1721    7.7393   20.0315 O   0  0  0  0  0  0  0  0  0  0  0  0
    9.1107   10.3880   21.3769 N   0  0  0  0  0  0  0  0  0  0  0  0
    3.9102    9.2008   20.3124 C   0  0  0  0  0  0  0  0  0  0  0  0
   12.7292   10.9960   18.4597 C   0  0  0  0  0  0  0  0  0  0  0  0
    9.3798    6.6793   23.6625 C   0  0  0  0  0  0  0  0  0  0  0  0
   14.7425   10.0739   19.0802 O   0  0  0  0  0  0  0  0  0  0  0  0
    5.1894    9.4673   20.7118 C   0  0  0  0  0  0  0  0  0  0  0  0
    7.3773    8.8224   21.4870 C   0  0  0  0  0  0  0  0  0  0  0  0
    8.4391    6.6439   21.0235 C   0  0  0  0  0  0  0  0  0  0  0  0
    9.6494   11.1353   20.4167 C   0  0  0  0  0  0  0  0  0  0  0  0
    8.1431    7.6829   21.9046 C   0  0  0  0  0  0  0  0  0  0  0  0
    7.7796   10.1314   21.5115 N   0  0  0  0  0  0  0  0  0  0  0  0
    9.2768    5.6183   21.4437 C   0  0  0  0  0  0  0  0  0  0  0  0
    8.6315    7.7322   23.1768 C   0  0  0  0  0  0  0  0  0  0  0  0
   13.0537    9.9821   20.5781 C   0  0  0  0  0  0  0  0  0  0  0  0
   10.3850    4.6575   23.2386 O   0  0  0  0  0  0  0  0  0  0  0  0
    4.2069    6.8450   20.7994 C   0  0  0  0  0  0  0  0  0  0  0  0
    3.0726   10.1043   19.8522 O   0  0  0  0  0  0  0  0  0  0  0  0
    5.5057    7.1196   21.1155 C   0  0  0  0  0  0  0  0  0  0  0  0
    7.0367   11.0229   21.9948 O   0  0  0  0  0  0  0  0  0  0  0  0
  1  8  4  0
  1 12  4  0
  2  9  1  0
  2 11  4  0
  2 25  4  0
  3 12  4  0
  3 14  1  0
  3 23  4  0
  4 13  4  0
  4 21  4  0
  4 24  1  0
  5  8  4  0
  5 23  4  0
  6 18  2  0
  7 15  4  0
  7 16  1  0
  7 27  4  0
  8 18  1  0
 10 18  1  0
 10 20  1  0
 11 15  4  0
 11 26  1  0
 13 22  4  0
 16 19  1  0
 16 20  2  0
 17 19  4  0
 17 21  4  0
 19 22  4  0
 20 28  1  0
 25 27  4  0
M  END
$$$$

 Created by Python create_sdf_string function

 28 30  0  0  0  0  0  0  0  0999 V2000
   11.4592   11.2893   18.7941 C   0  0  0  0  0  0  0  0  0  0  0  0
    3.4202    7.9009   20.3866 C   0  0  0  0  0  0  0  0  0  0  0  0
   13.5280   10.3522   19.3586 C   0  0  0  0  0  0  0  0  0  0  0  0
    9.6923    5.6468   22.7891 C   0  0  0  0  0  0  0  0  0  0  0  0
   11.7756   10.2554   20.8841 N   0  0  0  0  0  0  0  0  0  0  0  0
    8.9876   11.9370   19.8757 O   0  0  0  0  0  0  0  0  0  0  0  0
    6.0167    8.4478   21.1089 C   0  0  0  0  0  0  0  0  0  0  0  0
   11.0002   10.8890   20.0262 C   0  0  0  0  0  0  0  0  0  0  0  0
    2.1721    7.7393   20.0315 O   0  0  0  0  0  0  0  0  0  0  0  0
    9.1107   10.3880   21.3769 N   0  0  0  0  0  0  0  0  0  0  0  0
    3.9102    9.2008   20.3124 C   0  0  0  0  0  0  0  0  0  0  0  0
   12.7292   10.9960   18.4597 C   0  0  0  0  0  0  0  0  0  0  0  0
    9.3798    6.6793   23.6625 C   0  0  0  0  0  0  0  0  0  0  0  0
   14.7425   10.0739   19.0802 O   0  0  0  0  0  0  0  0  0  0  0  0
    5.1894    9.4673   20.7118 C   0  0  0  0  0  0  0  0  0  0  0  0
    7.3773    8.8224   21.4870 C   0  0  0  0  0  0  0  0  0  0  0  0
    8.4391    6.6439   21.0235 C   0  0  0  0  0  0  0  0  0  0  0  0
    9.6494   11.1353   20.4167 C   0  0  0  0  0  0  0  0  0  0  0  0
    8.1431    7.6829   21.9046 C   0  0  0  0  0  0  0  0  0  0  0  0
    7.7796   10.1314   21.5115 N   0  0  0  0  0  0  0  0  0  0  0  0
    9.2768    5.6183   21.4437 C   0  0  0  0  0  0  0  0  0  0  0  0
    8.6315    7.7322   23.1768 C   0  0  0  0  0  0  0  0  0  0  0  0
   13.0537    9.9821   20.5781 C   0  0  0  0  0  0  0  0  0  0  0  0
   10.3850    4.6575   23.2386 O   0  0  0  0  0  0  0  0  0  0  0  0
    4.2069    6.8450   20.7994 C   0  0  0  0  0  0  0  0  0  0  0  0
    3.0726   10.1043   19.8522 O   0  0  0  0  0  0  0  0  0  0  0  0
    5.5057    7.1196   21.1155 C   0  0  0  0  0  0  0  0  0  0  0  0
    7.0367   11.0229   21.9948 O   0  0  0  0  0  0  0  0  0  0  0  0
  1  8  4  0
  1 12  4  0
  2  9  1  0
  2 11  4  0
  2 25  4  0
  3 12  4  0
  3 14  1  0
  3 23  4  0
  4 13  4  0
  4 21  4  0
  4 24  1  0
  5  8  4  0
  5 23  4  0
  6 18  2  0
  7 15  4  0
  7 16  1  0
  7 27  4  0
  8 18  1  0
 10 18  1  0
 10 20  1  0
 11 15  4  0
 11 26  1  0
 13 22  4  0
 16 19  1  0
 16 20  2  0
 17 19  4  0
 17 21  4  0
 19 22  4  0
 20 28  1  0
 25 27  4  0
M  END
$$$$

 Created by Python create_sdf_string function

 28 30  0  0  0  0  0  0  0  0999 V2000
   11.4592   11.2893   18.7941 C   0  0  0  0  0  0  0  0  0  0  0  0
    3.4202    7.9009   20.3866 C   0  0  0  0  0  0  0  0  0  0  0  0
   13.5280   10.3522   19.3586 C   0  0  0  0  0  0  0  0  0  0  0  0
    9.6923    5.6468   22.7891 C   0  0  0  0  0  0  0  0  0  0  0  0
   11.7756   10.2554   20.8841 N   0  0  0  0  0  0  0  0  0  0  0  0
    8.9876   11.9370   19.8757 O   0  0  0  0  0  0  0  0  0  0  0  0
    6.0167    8.4478   21.1089 C   0  0  0  0  0  0  0  0  0  0  0  0
   11.0002   10.8890   20.0262 C   0  0  0  0  0  0  0  0  0  0  0  0
    2.1721    7.7393   20.0315 O   0  0  0  0  0  0  0  0  0  0  0  0
    9.1107   10.3880   21.3769 N   0  0  0  0  0  0  0  0  0  0  0  0
    3.9102    9.2008   20.3124 C   0  0  0  0  0  0  0  0  0  0  0  0
   12.7292   10.9960   18.4597 C   0  0  0  0  0  0  0  0  0  0  0  0
    9.3798    6.6793   23.6625 C   0  0  0  0  0  0  0  0  0  0  0  0
   14.7425   10.0739   19.0802 O   0  0  0  0  0  0  0  0  0  0  0  0
    5.1894    9.4673   20.7118 C   0  0  0  0  0  0  0  0  0  0  0  0
    7.3773    8.8224   21.4870 C   0  0  0  0  0  0  0  0  0  0  0  0
    8.4391    6.6439   21.0235 C   0  0  0  0  0  0  0  0  0  0  0  0
    9.6494   11.1353   20.4167 C   0  0  0  0  0  0  0  0  0  0  0  0
    8.1431    7.6829   21.9046 C   0  0  0  0  0  0  0  0  0  0  0  0
    7.7796   10.1314   21.5115 N   0  0  0  0  0  0  0  0  0  0  0  0
    9.2768    5.6183   21.4437 C   0  0  0  0  0  0  0  0  0  0  0  0
    8.6315    7.7322   23.1768 C   0  0  0  0  0  0  0  0  0  0  0  0
   13.0537    9.9821   20.5781 C   0  0  0  0  0  0  0  0  0  0  0  0
   10.3850    4.6575   23.2386 O   0  0  0  0  0  0  0  0  0  0  0  0
    4.2069    6.8450   20.7994 C   0  0  0  0  0  0  0  0  0  0  0  0
    3.0726   10.1043   19.8522 O   0  0  0  0  0  0  0  0  0  0  0  0
    5.5057    7.1196   21.1155 C   0  0  0  0  0  0  0  0  0  0  0  0
    7.0367   11.0229   21.9948 O   0  0  0  0  0  0  0  0  0  0  0  0
  1  8  4  0
  1 12  4  0
  2  9  1  0
  2 11  4  0
  2 25  4  0
  3 12  4  0
  3 14  1  0
  3 23  4  0
  4 13  4  0
  4 21  4  0
  4 24  1  0
  5  8  4  0
  5 23  4  0
  6 18  2  0
  7 15  4  0
  7 16  1  0
  7 27  4  0
  8 18  1  0
 10 18  1  0
 10 20  1  0
 11 15  4  0
 11 26  1  0
 13 22  4  0
 16 19  1  0
 16 20  2  0
 17 19  4  0
 17 21  4  0
 19 22  4  0
 20 28  1  0
 25 27  4  0
M  END
$$$$

 Created by Python create_sdf_string function

 28 30  0  0  0  0  0  0  0  0999 V2000
   11.4592   11.2893   18.7941 C   0  0  0  0  0  0  0  0  0  0  0  0
    3.4202    7.9009   20.3866 C   0  0  0  0  0  0  0  0  0  0  0  0
   13.5280   10.3522   19.3586 C   0  0  0  0  0  0  0  0  0  0  0  0
    9.6923    5.6468   22.7891 C   0  0  0  0  0  0  0  0  0  0  0  0
   11.7756   10.2554   20.8841 N   0  0  0  0  0  0  0  0  0  0  0  0
    8.9876   11.9370   19.8757 O   0  0  0  0  0  0  0  0  0  0  0  0
    6.0167    8.4478   21.1089 C   0  0  0  0  0  0  0  0  0  0  0  0
   11.0002   10.8890   20.0262 C   0  0  0  0  0  0  0  0  0  0  0  0
    2.1721    7.7393   20.0315 O   0  0  0  0  0  0  0  0  0  0  0  0
    9.1107   10.3880   21.3769 N   0  0  0  0  0  0  0  0  0  0  0  0
    3.9102    9.2008   20.3124 C   0  0  0  0  0  0  0  0  0  0  0  0
   12.7292   10.9960   18.4597 C   0  0  0  0  0  0  0  0  0  0  0  0
    9.3798    6.6793   23.6625 C   0  0  0  0  0  0  0  0  0  0  0  0
   14.7425   10.0739   19.0802 O   0  0  0  0  0  0  0  0  0  0  0  0
    5.1894    9.4673   20.7118 C   0  0  0  0  0  0  0  0  0  0  0  0
    7.3773    8.8224   21.4870 C   0  0  0  0  0  0  0  0  0  0  0  0
    8.4391    6.6439   21.0235 C   0  0  0  0  0  0  0  0  0  0  0  0
    9.6494   11.1353   20.4167 C   0  0  0  0  0  0  0  0  0  0  0  0
    8.1431    7.6829   21.9046 C   0  0  0  0  0  0  0  0  0  0  0  0
    7.7796   10.1314   21.5115 N   0  0  0  0  0  0  0  0  0  0  0  0
    9.2768    5.6183   21.4437 C   0  0  0  0  0  0  0  0  0  0  0  0
    8.6315    7.7322   23.1768 C   0  0  0  0  0  0  0  0  0  0  0  0
   13.0537    9.9821   20.5781 C   0  0  0  0  0  0  0  0  0  0  0  0
   10.3850    4.6575   23.2386 O   0  0  0  0  0  0  0  0  0  0  0  0
    4.2069    6.8450   20.7994 C   0  0  0  0  0  0  0  0  0  0  0  0
    3.0726   10.1043   19.8522 O   0  0  0  0  0  0  0  0  0  0  0  0
    5.5057    7.1196   21.1155 C   0  0  0  0  0  0  0  0  0  0  0  0
    7.0367   11.0229   21.9948 O   0  0  0  0  0  0  0  0  0  0  0  0
  1  8  4  0
  1 12  4  0
  2  9  1  0
  2 11  4  0
  2 25  4  0
  3 12  4  0
  3 14  1  0
  3 23  4  0
  4 13  4  0
  4 21  4  0
  4 24  1  0
  5  8  4  0
  5 23  4  0
  6 18  2  0
  7 15  4  0
  7 16  1  0
  7 27  4  0
  8 18  1  0
 10 18  1  0
 10 20  1  0
 11 15  4  0
 11 26  1  0
 13 22  4  0
 16 19  1  0
 16 20  2  0
 17 19  4  0
 17 21  4  0
 19 22  4  0
 20 28  1  0
 25 27  4  0
M  END
$$$$

 Created by Python create_sdf_string function

 28 30  0  0  0  0  0  0  0  0999 V2000
   11.4592   11.2893   18.7941 C   0  0  0  0  0  0  0  0  0  0  0  0
    3.4202    7.9009   20.3866 C   0  0  0  0  0  0  0  0  0  0  0  0
   13.5280   10.3522   19.3586 C   0  0  0  0  0  0  0  0  0  0  0  0
    9.6923    5.6468   22.7891 C   0  0  0  0  0  0  0  0  0  0  0  0
   11.7756   10.2554   20.8841 N   0  0  0  0  0  0  0  0  0  0  0  0
    8.9876   11.9370   19.8757 O   0  0  0  0  0  0  0  0  0  0  0  0
    6.0167    8.4478   21.1089 C   0  0  0  0  0  0  0  0  0  0  0  0
   11.0002   10.8890   20.0262 C   0  0  0  0  0  0  0  0  0  0  0  0
    2.1721    7.7393   20.0315 O   0  0  0  0  0  0  0  0  0  0  0  0
    9.1107   10.3880   21.3769 N   0  0  0  0  0  0  0  0  0  0  0  0
    3.9102    9.2008   20.3124 C   0  0  0  0  0  0  0  0  0  0  0  0
   12.7292   10.9960   18.4597 C   0  0  0  0  0  0  0  0  0  0  0  0
    9.3798    6.6793   23.6625 C   0  0  0  0  0  0  0  0  0  0  0  0
   14.7425   10.0739   19.0802 O   0  0  0  0  0  0  0  0  0  0  0  0
    5.1894    9.4673   20.7118 C   0  0  0  0  0  0  0  0  0  0  0  0
    7.3773    8.8224   21.4870 C   0  0  0  0  0  0  0  0  0  0  0  0
    8.4391    6.6439   21.0235 C   0  0  0  0  0  0  0  0  0  0  0  0
    9.6494   11.1353   20.4167 C   0  0  0  0  0  0  0  0  0  0  0  0
    8.1431    7.6829   21.9046 C   0  0  0  0  0  0  0  0  0  0  0  0
    7.7796   10.1314   21.5115 N   0  0  0  0  0  0  0  0  0  0  0  0
    9.2768    5.6183   21.4437 C   0  0  0  0  0  0  0  0  0  0  0  0
    8.6315    7.7322   23.1768 C   0  0  0  0  0  0  0  0  0  0  0  0
   13.0537    9.9821   20.5781 C   0  0  0  0  0  0  0  0  0  0  0  0
   10.3850    4.6575   23.2386 O   0  0  0  0  0  0  0  0  0  0  0  0
    4.2069    6.8450   20.7994 C   0  0  0  0  0  0  0  0  0  0  0  0
    3.0726   10.1043   19.8522 O   0  0  0  0  0  0  0  0  0  0  0  0
    5.5057    7.1196   21.1155 C   0  0  0  0  0  0  0  0  0  0  0  0
    7.0367   11.0229   21.9948 O   0  0  0  0  0  0  0  0  0  0  0  0
  1  8  4  0
  1 12  4  0
  2  9  1  0
  2 11  4  0
  2 25  4  0
  3 12  4  0
  3 14  1  0
  3 23  4  0
  4 13  4  0
  4 21  4  0
  4 24  1  0
  5  8  4  0
  5 23  4  0
  6 18  2  0
  7 15  4  0
  7 16  1  0
  7 27  4  0
  8 18  1  0
 10 18  1  0
 10 20  1  0
 11 15  4  0
 11 26  1  0
 13 22  4  0
 16 19  1  0
 16 20  2  0
 17 19  4  0
 17 21  4  0
 19 22  4  0
 20 28  1  0
 25 27  4  0
M  END
$$$$

 Created by Python create_sdf_string function

 28 30  0  0  0  0  0  0  0  0999 V2000
   11.4592   11.2893   18.7941 C   0  0  0  0  0  0  0  0  0  0  0  0
    3.4202    7.9009   20.3866 C   0  0  0  0  0  0  0  0  0  0  0  0
   13.5280   10.3522   19.3586 C   0  0  0  0  0  0  0  0  0  0  0  0
    9.6923    5.6468   22.7891 C   0  0  0  0  0  0  0  0  0  0  0  0
   11.7756   10.2554   20.8841 N   0  0  0  0  0  0  0  0  0  0  0  0
    8.9876   11.9370   19.8757 O   0  0  0  0  0  0  0  0  0  0  0  0
    6.0167    8.4478   21.1089 C   0  0  0  0  0  0  0  0  0  0  0  0
   11.0002   10.8890   20.0262 C   0  0  0  0  0  0  0  0  0  0  0  0
    2.1721    7.7393   20.0315 O   0  0  0  0  0  0  0  0  0  0  0  0
    9.1107   10.3880   21.3769 N   0  0  0  0  0  0  0  0  0  0  0  0
    3.9102    9.2008   20.3124 C   0  0  0  0  0  0  0  0  0  0  0  0
   12.7292   10.9960   18.4597 C   0  0  0  0  0  0  0  0  0  0  0  0
    9.3798    6.6793   23.6625 C   0  0  0  0  0  0  0  0  0  0  0  0
   14.7425   10.0739   19.0802 O   0  0  0  0  0  0  0  0  0  0  0  0
    5.1894    9.4673   20.7118 C   0  0  0  0  0  0  0  0  0  0  0  0
    7.3773    8.8224   21.4870 C   0  0  0  0  0  0  0  0  0  0  0  0
    8.4391    6.6439   21.0235 C   0  0  0  0  0  0  0  0  0  0  0  0
    9.6494   11.1353   20.4167 C   0  0  0  0  0  0  0  0  0  0  0  0
    8.1431    7.6829   21.9046 C   0  0  0  0  0  0  0  0  0  0  0  0
    7.7796   10.1314   21.5115 N   0  0  0  0  0  0  0  0  0  0  0  0
    9.2768    5.6183   21.4437 C   0  0  0  0  0  0  0  0  0  0  0  0
    8.6315    7.7322   23.1768 C   0  0  0  0  0  0  0  0  0  0  0  0
   13.0537    9.9821   20.5781 C   0  0  0  0  0  0  0  0  0  0  0  0
   10.3850    4.6575   23.2386 O   0  0  0  0  0  0  0  0  0  0  0  0
    4.2069    6.8450   20.7994 C   0  0  0  0  0  0  0  0  0  0  0  0
    3.0726   10.1043   19.8522 O   0  0  0  0  0  0  0  0  0  0  0  0
    5.5057    7.1196   21.1155 C   0  0  0  0  0  0  0  0  0  0  0  0
    7.0367   11.0229   21.9948 O   0  0  0  0  0  0  0  0  0  0  0  0
  1  8  4  0
  1 12  4  0
  2  9  1  0
  2 11  4  0
  2 25  4  0
  3 12  4  0
  3 14  1  0
  3 23  4  0
  4 13  4  0
  4 21  4  0
  4 24  1  0
  5  8  4  0
  5 23  4  0
  6 18  2  0
  7 15  4  0
  7 16  1  0
  7 27  4  0
  8 18  1  0
 10 18  1  0
 10 20  1  0
 11 15  4  0
 11 26  1  0
 13 22  4  0
 16 19  1  0
 16 20  2  0
 17 19  4  0
 17 21  4  0
 19 22  4  0
 20 28  1  0
 25 27  4  0
M  END
$$$$

 Created by Python create_sdf_string function

 28 30  0  0  0  0  0  0  0  0999 V2000
   11.4592   11.2893   18.7941 C   0  0  0  0  0  0  0  0  0  0  0  0
    3.4202    7.9009   20.3866 C   0  0  0  0  0  0  0  0  0  0  0  0
   13.5280   10.3522   19.3586 C   0  0  0  0  0  0  0  0  0  0  0  0
    9.6923    5.6468   22.7891 C   0  0  0  0  0  0  0  0  0  0  0  0
   11.7756   10.2554   20.8841 N   0  0  0  0  0  0  0  0  0  0  0  0
    8.9876   11.9370   19.8757 O   0  0  0  0  0  0  0  0  0  0  0  0
    6.0167    8.4478   21.1089 C   0  0  0  0  0  0  0  0  0  0  0  0
   11.0002   10.8890   20.0262 C   0  0  0  0  0  0  0  0  0  0  0  0
    2.1721    7.7393   20.0315 O   0  0  0  0  0  0  0  0  0  0  0  0
    9.1107   10.3880   21.3769 N   0  0  0  0  0  0  0  0  0  0  0  0
    3.9102    9.2008   20.3124 C   0  0  0  0  0  0  0  0  0  0  0  0
   12.7292   10.9960   18.4597 C   0  0  0  0  0  0  0  0  0  0  0  0
    9.3798    6.6793   23.6625 C   0  0  0  0  0  0  0  0  0  0  0  0
   14.7425   10.0739   19.0802 O   0  0  0  0  0  0  0  0  0  0  0  0
    5.1894    9.4673   20.7118 C   0  0  0  0  0  0  0  0  0  0  0  0
    7.3773    8.8224   21.4870 C   0  0  0  0  0  0  0  0  0  0  0  0
    8.4391    6.6439   21.0235 C   0  0  0  0  0  0  0  0  0  0  0  0
    9.6494   11.1353   20.4167 C   0  0  0  0  0  0  0  0  0  0  0  0
    8.1431    7.6829   21.9046 C   0  0  0  0  0  0  0  0  0  0  0  0
    7.7796   10.1314   21.5115 N   0  0  0  0  0  0  0  0  0  0  0  0
    9.2768    5.6183   21.4437 C   0  0  0  0  0  0  0  0  0  0  0  0
    8.6315    7.7322   23.1768 C   0  0  0  0  0  0  0  0  0  0  0  0
   13.0537    9.9821   20.5781 C   0  0  0  0  0  0  0  0  0  0  0  0
   10.3850    4.6575   23.2386 O   0  0  0  0  0  0  0  0  0  0  0  0
    4.2069    6.8450   20.7994 C   0  0  0  0  0  0  0  0  0  0  0  0
    3.0726   10.1043   19.8522 O   0  0  0  0  0  0  0  0  0  0  0  0
    5.5057    7.1196   21.1155 C   0  0  0  0  0  0  0  0  0  0  0  0
    7.0367   11.0229   21.9948 O   0  0  0  0  0  0  0  0  0  0  0  0
  1  8  4  0
  1 12  4  0
  2  9  1  0
  2 11  4  0
  2 25  4  0
  3 12  4  0
  3 14  1  0
  3 23  4  0
  4 13  4  0
  4 21  4  0
  4 24  1  0
  5  8  4  0
  5 23  4  0
  6 18  2  0
  7 15  4  0
  7 16  1  0
  7 27  4  0
  8 18  1  0
 10 18  1  0
 10 20  1  0
 11 15  4  0
 11 26  1  0
 13 22  4  0
 16 19  1  0
 16 20  2  0
 17 19  4  0
 17 21  4  0
 19 22  4  0
 20 28  1  0
 25 27  4  0
M  END
$$$$

 Created by Python create_sdf_string function

 28 30  0  0  0  0  0  0  0  0999 V2000
   11.4592   11.2893   18.7941 C   0  0  0  0  0  0  0  0  0  0  0  0
    3.4202    7.9009   20.3866 C   0  0  0  0  0  0  0  0  0  0  0  0
   13.5280   10.3522   19.3586 C   0  0  0  0  0  0  0  0  0  0  0  0
    9.6923    5.6468   22.7891 C   0  0  0  0  0  0  0  0  0  0  0  0
   11.7756   10.2554   20.8841 N   0  0  0  0  0  0  0  0  0  0  0  0
    8.9876   11.9370   19.8757 O   0  0  0  0  0  0  0  0  0  0  0  0
    6.0167    8.4478   21.1089 C   0  0  0  0  0  0  0  0  0  0  0  0
   11.0002   10.8890   20.0262 C   0  0  0  0  0  0  0  0  0  0  0  0
    2.1721    7.7393   20.0315 O   0  0  0  0  0  0  0  0  0  0  0  0
    9.1107   10.3880   21.3769 N   0  0  0  0  0  0  0  0  0  0  0  0
    3.9102    9.2008   20.3124 C   0  0  0  0  0  0  0  0  0  0  0  0
   12.7292   10.9960   18.4597 C   0  0  0  0  0  0  0  0  0  0  0  0
    9.3798    6.6793   23.6625 C   0  0  0  0  0  0  0  0  0  0  0  0
   14.7425   10.0739   19.0802 O   0  0  0  0  0  0  0  0  0  0  0  0
    5.1894    9.4673   20.7118 C   0  0  0  0  0  0  0  0  0  0  0  0
    7.3773    8.8224   21.4870 C   0  0  0  0  0  0  0  0  0  0  0  0
    8.4391    6.6439   21.0235 C   0  0  0  0  0  0  0  0  0  0  0  0
    9.6494   11.1353   20.4167 C   0  0  0  0  0  0  0  0  0  0  0  0
    8.1431    7.6829   21.9046 C   0  0  0  0  0  0  0  0  0  0  0  0
    7.7796   10.1314   21.5115 N   0  0  0  0  0  0  0  0  0  0  0  0
    9.2768    5.6183   21.4437 C   0  0  0  0  0  0  0  0  0  0  0  0
    8.6315    7.7322   23.1768 C   0  0  0  0  0  0  0  0  0  0  0  0
   13.0537    9.9821   20.5781 C   0  0  0  0  0  0  0  0  0  0  0  0
   10.3850    4.6575   23.2386 O   0  0  0  0  0  0  0  0  0  0  0  0
    4.2069    6.8450   20.7994 C   0  0  0  0  0  0  0  0  0  0  0  0
    3.0726   10.1043   19.8522 O   0  0  0  0  0  0  0  0  0  0  0  0
    5.5057    7.1196   21.1155 C   0  0  0  0  0  0  0  0  0  0  0  0
    7.0367   11.0229   21.9948 O   0  0  0  0  0  0  0  0  0  0  0  0
  1  8  4  0
  1 12  4  0
  2  9  1  0
  2 11  4  0
  2 25  4  0
  3 12  4  0
  3 14  1  0
  3 23  4  0
  4 13  4  0
  4 21  4  0
  4 24  1  0
  5  8  4  0
  5 23  4  0
  6 18  2  0
  7 15  4  0
  7 16  1  0
  7 27  4  0
  8 18  1  0
 10 18  1  0
 10 20  1  0
 11 15  4  0
 11 26  1  0
 13 22  4  0
 16 19  1  0
 16 20  2  0
 17 19  4  0
 17 21  4  0
 19 22  4  0
 20 28  1  0
 25 27  4  0
M  END
$$$$

 Created by Python create_sdf_string function

 28 30  0  0  0  0  0  0  0  0999 V2000
   11.4592   11.2893   18.7941 C   0  0  0  0  0  0  0  0  0  0  0  0
    3.4202    7.9009   20.3866 C   0  0  0  0  0  0  0  0  0  0  0  0
   13.5280   10.3522   19.3586 C   0  0  0  0  0  0  0  0  0  0  0  0
    9.6923    5.6468   22.7891 C   0  0  0  0  0  0  0  0  0  0  0  0
   11.7756   10.2554   20.8841 N   0  0  0  0  0  0  0  0  0  0  0  0
    8.9876   11.9370   19.8757 O   0  0  0  0  0  0  0  0  0  0  0  0
    6.0167    8.4478   21.1089 C   0  0  0  0  0  0  0  0  0  0  0  0
   11.0002   10.8890   20.0262 C   0  0  0  0  0  0  0  0  0  0  0  0
    2.1721    7.7393   20.0315 O   0  0  0  0  0  0  0  0  0  0  0  0
    9.1107   10.3880   21.3769 N   0  0  0  0  0  0  0  0  0  0  0  0
    3.9102    9.2008   20.3124 C   0  0  0  0  0  0  0  0  0  0  0  0
   12.7292   10.9960   18.4597 C   0  0  0  0  0  0  0  0  0  0  0  0
    9.3798    6.6793   23.6625 C   0  0  0  0  0  0  0  0  0  0  0  0
   14.7425   10.0739   19.0802 O   0  0  0  0  0  0  0  0  0  0  0  0
    5.1894    9.4673   20.7118 C   0  0  0  0  0  0  0  0  0  0  0  0
    7.3773    8.8224   21.4870 C   0  0  0  0  0  0  0  0  0  0  0  0
    8.4391    6.6439   21.0235 C   0  0  0  0  0  0  0  0  0  0  0  0
    9.6494   11.1353   20.4167 C   0  0  0  0  0  0  0  0  0  0  0  0
    8.1431    7.6829   21.9046 C   0  0  0  0  0  0  0  0  0  0  0  0
    7.7796   10.1314   21.5115 N   0  0  0  0  0  0  0  0  0  0  0  0
    9.2768    5.6183   21.4437 C   0  0  0  0  0  0  0  0  0  0  0  0
    8.6315    7.7322   23.1768 C   0  0  0  0  0  0  0  0  0  0  0  0
   13.0537    9.9821   20.5781 C   0  0  0  0  0  0  0  0  0  0  0  0
   10.3850    4.6575   23.2386 O   0  0  0  0  0  0  0  0  0  0  0  0
    4.2069    6.8450   20.7994 C   0  0  0  0  0  0  0  0  0  0  0  0
    3.0726   10.1043   19.8522 O   0  0  0  0  0  0  0  0  0  0  0  0
    5.5057    7.1196   21.1155 C   0  0  0  0  0  0  0  0  0  0  0  0
    7.0367   11.0229   21.9948 O   0  0  0  0  0  0  0  0  0  0  0  0
  1  8  4  0
  1 12  4  0
  2  9  1  0
  2 11  4  0
  2 25  4  0
  3 12  4  0
  3 14  1  0
  3 23  4  0
  4 13  4  0
  4 21  4  0
  4 24  1  0
  5  8  4  0
  5 23  4  0
  6 18  2  0
  7 15  4  0
  7 16  1  0
  7 27  4  0
  8 18  1  0
 10 18  1  0
 10 20  1  0
 11 15  4  0
 11 26  1  0
 13 22  4  0
 16 19  1  0
 16 20  2  0
 17 19  4  0
 17 21  4  0
 19 22  4  0
 20 28  1  0
 25 27  4  0
M  END
$$$$

 Created by Python create_sdf_string function

 28 30  0  0  0  0  0  0  0  0999 V2000
   11.4592   11.2893   18.7941 C   0  0  0  0  0  0  0  0  0  0  0  0
    3.4202    7.9009   20.3866 C   0  0  0  0  0  0  0  0  0  0  0  0
   13.5280   10.3522   19.3586 C   0  0  0  0  0  0  0  0  0  0  0  0
    9.6923    5.6468   22.7891 C   0  0  0  0  0  0  0  0  0  0  0  0
   11.7756   10.2554   20.8841 N   0  0  0  0  0  0  0  0  0  0  0  0
    8.9876   11.9370   19.8757 O   0  0  0  0  0  0  0  0  0  0  0  0
    6.0167    8.4478   21.1089 C   0  0  0  0  0  0  0  0  0  0  0  0
   11.0002   10.8890   20.0262 C   0  0  0  0  0  0  0  0  0  0  0  0
    2.1721    7.7393   20.0315 O   0  0  0  0  0  0  0  0  0  0  0  0
    9.1107   10.3880   21.3769 N   0  0  0  0  0  0  0  0  0  0  0  0
    3.9102    9.2008   20.3124 C   0  0  0  0  0  0  0  0  0  0  0  0
   12.7292   10.9960   18.4597 C   0  0  0  0  0  0  0  0  0  0  0  0
    9.3798    6.6793   23.6625 C   0  0  0  0  0  0  0  0  0  0  0  0
   14.7425   10.0739   19.0802 O   0  0  0  0  0  0  0  0  0  0  0  0
    5.1894    9.4673   20.7118 C   0  0  0  0  0  0  0  0  0  0  0  0
    7.3773    8.8224   21.4870 C   0  0  0  0  0  0  0  0  0  0  0  0
    8.4391    6.6439   21.0235 C   0  0  0  0  0  0  0  0  0  0  0  0
    9.6494   11.1353   20.4167 C   0  0  0  0  0  0  0  0  0  0  0  0
    8.1431    7.6829   21.9046 C   0  0  0  0  0  0  0  0  0  0  0  0
    7.7796   10.1314   21.5115 N   0  0  0  0  0  0  0  0  0  0  0  0
    9.2768    5.6183   21.4437 C   0  0  0  0  0  0  0  0  0  0  0  0
    8.6315    7.7322   23.1768 C   0  0  0  0  0  0  0  0  0  0  0  0
   13.0537    9.9821   20.5781 C   0  0  0  0  0  0  0  0  0  0  0  0
   10.3850    4.6575   23.2386 O   0  0  0  0  0  0  0  0  0  0  0  0
    4.2069    6.8450   20.7994 C   0  0  0  0  0  0  0  0  0  0  0  0
    3.0726   10.1043   19.8522 O   0  0  0  0  0  0  0  0  0  0  0  0
    5.5057    7.1196   21.1155 C   0  0  0  0  0  0  0  0  0  0  0  0
    7.0367   11.0229   21.9948 O   0  0  0  0  0  0  0  0  0  0  0  0
  1  8  4  0
  1 12  4  0
  2  9  1  0
  2 11  4  0
  2 25  4  0
  3 12  4  0
  3 14  1  0
  3 23  4  0
  4 13  4  0
  4 21  4  0
  4 24  1  0
  5  8  4  0
  5 23  4  0
  6 18  2  0
  7 15  4  0
  7 16  1  0
  7 27  4  0
  8 18  1  0
 10 18  1  0
 10 20  1  0
 11 15  4  0
 11 26  1  0
 13 22  4  0
 16 19  1  0
 16 20  2  0
 17 19  4  0
 17 21  4  0
 19 22  4  0
 20 28  1  0
 25 27  4  0
M  END
$$$$

 Created by Python create_sdf_string function

 28 30  0  0  0  0  0  0  0  0999 V2000
   11.4592   11.2893   18.7941 C   0  0  0  0  0  0  0  0  0  0  0  0
    3.4202    7.9009   20.3866 C   0  0  0  0  0  0  0  0  0  0  0  0
   13.5280   10.3522   19.3586 C   0  0  0  0  0  0  0  0  0  0  0  0
    9.6923    5.6468   22.7891 C   0  0  0  0  0  0  0  0  0  0  0  0
   11.7756   10.2554   20.8841 N   0  0  0  0  0  0  0  0  0  0  0  0
    8.9876   11.9370   19.8757 O   0  0  0  0  0  0  0  0  0  0  0  0
    6.0167    8.4478   21.1089 C   0  0  0  0  0  0  0  0  0  0  0  0
   11.0002   10.8890   20.0262 C   0  0  0  0  0  0  0  0  0  0  0  0
    2.1721    7.7393   20.0315 O   0  0  0  0  0  0  0  0  0  0  0  0
    9.1107   10.3880   21.3769 N   0  0  0  0  0  0  0  0  0  0  0  0
    3.9102    9.2008   20.3124 C   0  0  0  0  0  0  0  0  0  0  0  0
   12.7292   10.9960   18.4597 C   0  0  0  0  0  0  0  0  0  0  0  0
    9.3798    6.6793   23.6625 C   0  0  0  0  0  0  0  0  0  0  0  0
   14.7425   10.0739   19.0802 O   0  0  0  0  0  0  0  0  0  0  0  0
    5.1894    9.4673   20.7118 C   0  0  0  0  0  0  0  0  0  0  0  0
    7.3773    8.8224   21.4870 C   0  0  0  0  0  0  0  0  0  0  0  0
    8.4391    6.6439   21.0235 C   0  0  0  0  0  0  0  0  0  0  0  0
    9.6494   11.1353   20.4167 C   0  0  0  0  0  0  0  0  0  0  0  0
    8.1431    7.6829   21.9046 C   0  0  0  0  0  0  0  0  0  0  0  0
    7.7796   10.1314   21.5115 N   0  0  0  0  0  0  0  0  0  0  0  0
    9.2768    5.6183   21.4437 C   0  0  0  0  0  0  0  0  0  0  0  0
    8.6315    7.7322   23.1768 C   0  0  0  0  0  0  0  0  0  0  0  0
   13.0537    9.9821   20.5781 C   0  0  0  0  0  0  0  0  0  0  0  0
   10.3850    4.6575   23.2386 O   0  0  0  0  0  0  0  0  0  0  0  0
    4.2069    6.8450   20.7994 C   0  0  0  0  0  0  0  0  0  0  0  0
    3.0726   10.1043   19.8522 O   0  0  0  0  0  0  0  0  0  0  0  0
    5.5057    7.1196   21.1155 C   0  0  0  0  0  0  0  0  0  0  0  0
    7.0367   11.0229   21.9948 O   0  0  0  0  0  0  0  0  0  0  0  0
  1  8  4  0
  1 12  4  0
  2  9  1  0
  2 11  4  0
  2 25  4  0
  3 12  4  0
  3 14  1  0
  3 23  4  0
  4 13  4  0
  4 21  4  0
  4 24  1  0
  5  8  4  0
  5 23  4  0
  6 18  2  0
  7 15  4  0
  7 16  1  0
  7 27  4  0
  8 18  1  0
 10 18  1  0
 10 20  1  0
 11 15  4  0
 11 26  1  0
 13 22  4  0
 16 19  1  0
 16 20  2  0
 17 19  4  0
 17 21  4  0
 19 22  4  0
 20 28  1  0
 25 27  4  0
M  END
$$$$

 Created by Python create_sdf_string function

 28 30  0  0  0  0  0  0  0  0999 V2000
   11.4592   11.2893   18.7941 C   0  0  0  0  0  0  0  0  0  0  0  0
    3.4202    7.9009   20.3866 C   0  0  0  0  0  0  0  0  0  0  0  0
   13.5280   10.3522   19.3586 C   0  0  0  0  0  0  0  0  0  0  0  0
    9.6923    5.6468   22.7891 C   0  0  0  0  0  0  0  0  0  0  0  0
   11.7756   10.2554   20.8841 N   0  0  0  0  0  0  0  0  0  0  0  0
    8.9876   11.9370   19.8757 O   0  0  0  0  0  0  0  0  0  0  0  0
    6.0167    8.4478   21.1089 C   0  0  0  0  0  0  0  0  0  0  0  0
   11.0002   10.8890   20.0262 C   0  0  0  0  0  0  0  0  0  0  0  0
    2.1721    7.7393   20.0315 O   0  0  0  0  0  0  0  0  0  0  0  0
    9.1107   10.3880   21.3769 N   0  0  0  0  0  0  0  0  0  0  0  0
    3.9102    9.2008   20.3124 C   0  0  0  0  0  0  0  0  0  0  0  0
   12.7292   10.9960   18.4597 C   0  0  0  0  0  0  0  0  0  0  0  0
    9.3798    6.6793   23.6625 C   0  0  0  0  0  0  0  0  0  0  0  0
   14.7425   10.0739   19.0802 O   0  0  0  0  0  0  0  0  0  0  0  0
    5.1894    9.4673   20.7118 C   0  0  0  0  0  0  0  0  0  0  0  0
    7.3773    8.8224   21.4870 C   0  0  0  0  0  0  0  0  0  0  0  0
    8.4391    6.6439   21.0235 C   0  0  0  0  0  0  0  0  0  0  0  0
    9.6494   11.1353   20.4167 C   0  0  0  0  0  0  0  0  0  0  0  0
    8.1431    7.6829   21.9046 C   0  0  0  0  0  0  0  0  0  0  0  0
    7.7796   10.1314   21.5115 N   0  0  0  0  0  0  0  0  0  0  0  0
    9.2768    5.6183   21.4437 C   0  0  0  0  0  0  0  0  0  0  0  0
    8.6315    7.7322   23.1768 C   0  0  0  0  0  0  0  0  0  0  0  0
   13.0537    9.9821   20.5781 C   0  0  0  0  0  0  0  0  0  0  0  0
   10.3850    4.6575   23.2386 O   0  0  0  0  0  0  0  0  0  0  0  0
    4.2069    6.8450   20.7994 C   0  0  0  0  0  0  0  0  0  0  0  0
    3.0726   10.1043   19.8522 O   0  0  0  0  0  0  0  0  0  0  0  0
    5.5057    7.1196   21.1155 C   0  0  0  0  0  0  0  0  0  0  0  0
    7.0367   11.0229   21.9948 O   0  0  0  0  0  0  0  0  0  0  0  0
  1  8  4  0
  1 12  4  0
  2  9  1  0
  2 11  4  0
  2 25  4  0
  3 12  4  0
  3 14  1  0
  3 23  4  0
  4 13  4  0
  4 21  4  0
  4 24  1  0
  5  8  4  0
  5 23  4  0
  6 18  2  0
  7 15  4  0
  7 16  1  0
  7 27  4  0
  8 18  1  0
 10 18  1  0
 10 20  1  0
 11 15  4  0
 11 26  1  0
 13 22  4  0
 16 19  1  0
 16 20  2  0
 17 19  4  0
 17 21  4  0
 19 22  4  0
 20 28  1  0
 25 27  4  0
M  END
$$$$

 Created by Python create_sdf_string function

 28 30  0  0  0  0  0  0  0  0999 V2000
   11.4592   11.2893   18.7941 C   0  0  0  0  0  0  0  0  0  0  0  0
    3.4202    7.9009   20.3866 C   0  0  0  0  0  0  0  0  0  0  0  0
   13.5280   10.3522   19.3586 C   0  0  0  0  0  0  0  0  0  0  0  0
    9.6923    5.6468   22.7891 C   0  0  0  0  0  0  0  0  0  0  0  0
   11.7756   10.2554   20.8841 N   0  0  0  0  0  0  0  0  0  0  0  0
    8.9876   11.9370   19.8757 O   0  0  0  0  0  0  0  0  0  0  0  0
    6.0167    8.4478   21.1089 C   0  0  0  0  0  0  0  0  0  0  0  0
   11.0002   10.8890   20.0262 C   0  0  0  0  0  0  0  0  0  0  0  0
    2.1721    7.7393   20.0315 O   0  0  0  0  0  0  0  0  0  0  0  0
    9.1107   10.3880   21.3769 N   0  0  0  0  0  0  0  0  0  0  0  0
    3.9102    9.2008   20.3124 C   0  0  0  0  0  0  0  0  0  0  0  0
   12.7292   10.9960   18.4597 C   0  0  0  0  0  0  0  0  0  0  0  0
    9.3798    6.6793   23.6625 C   0  0  0  0  0  0  0  0  0  0  0  0
   14.7425   10.0739   19.0802 O   0  0  0  0  0  0  0  0  0  0  0  0
    5.1894    9.4673   20.7118 C   0  0  0  0  0  0  0  0  0  0  0  0
    7.3773    8.8224   21.4870 C   0  0  0  0  0  0  0  0  0  0  0  0
    8.4391    6.6439   21.0235 C   0  0  0  0  0  0  0  0  0  0  0  0
    9.6494   11.1353   20.4167 C   0  0  0  0  0  0  0  0  0  0  0  0
    8.1431    7.6829   21.9046 C   0  0  0  0  0  0  0  0  0  0  0  0
    7.7796   10.1314   21.5115 N   0  0  0  0  0  0  0  0  0  0  0  0
    9.2768    5.6183   21.4437 C   0  0  0  0  0  0  0  0  0  0  0  0
    8.6315    7.7322   23.1768 C   0  0  0  0  0  0  0  0  0  0  0  0
   13.0537    9.9821   20.5781 C   0  0  0  0  0  0  0  0  0  0  0  0
   10.3850    4.6575   23.2386 O   0  0  0  0  0  0  0  0  0  0  0  0
    4.2069    6.8450   20.7994 C   0  0  0  0  0  0  0  0  0  0  0  0
    3.0726   10.1043   19.8522 O   0  0  0  0  0  0  0  0  0  0  0  0
    5.5057    7.1196   21.1155 C   0  0  0  0  0  0  0  0  0  0  0  0
    7.0367   11.0229   21.9948 O   0  0  0  0  0  0  0  0  0  0  0  0
  1  8  4  0
  1 12  4  0
  2  9  1  0
  2 11  4  0
  2 25  4  0
  3 12  4  0
  3 14  1  0
  3 23  4  0
  4 13  4  0
  4 21  4  0
  4 24  1  0
  5  8  4  0
  5 23  4  0
  6 18  2  0
  7 15  4  0
  7 16  1  0
  7 27  4  0
  8 18  1  0
 10 18  1  0
 10 20  1  0
 11 15  4  0
 11 26  1  0
 13 22  4  0
 16 19  1  0
 16 20  2  0
 17 19  4  0
 17 21  4  0
 19 22  4  0
 20 28  1  0
 25 27  4  0
M  END
$$$$

 Created by Python create_sdf_string function

 28 30  0  0  0  0  0  0  0  0999 V2000
   11.4592   11.2893   18.7941 C   0  0  0  0  0  0  0  0  0  0  0  0
    3.4202    7.9009   20.3866 C   0  0  0  0  0  0  0  0  0  0  0  0
   13.5280   10.3522   19.3586 C   0  0  0  0  0  0  0  0  0  0  0  0
    9.6923    5.6468   22.7891 C   0  0  0  0  0  0  0  0  0  0  0  0
   11.7756   10.2554   20.8841 N   0  0  0  0  0  0  0  0  0  0  0  0
    8.9876   11.9370   19.8757 O   0  0  0  0  0  0  0  0  0  0  0  0
    6.0167    8.4478   21.1089 C   0  0  0  0  0  0  0  0  0  0  0  0
   11.0002   10.8890   20.0262 C   0  0  0  0  0  0  0  0  0  0  0  0
    2.1721    7.7393   20.0315 O   0  0  0  0  0  0  0  0  0  0  0  0
    9.1107   10.3880   21.3769 N   0  0  0  0  0  0  0  0  0  0  0  0
    3.9102    9.2008   20.3124 C   0  0  0  0  0  0  0  0  0  0  0  0
   12.7292   10.9960   18.4597 C   0  0  0  0  0  0  0  0  0  0  0  0
    9.3798    6.6793   23.6625 C   0  0  0  0  0  0  0  0  0  0  0  0
   14.7425   10.0739   19.0802 O   0  0  0  0  0  0  0  0  0  0  0  0
    5.1894    9.4673   20.7118 C   0  0  0  0  0  0  0  0  0  0  0  0
    7.3773    8.8224   21.4870 C   0  0  0  0  0  0  0  0  0  0  0  0
    8.4391    6.6439   21.0235 C   0  0  0  0  0  0  0  0  0  0  0  0
    9.6494   11.1353   20.4167 C   0  0  0  0  0  0  0  0  0  0  0  0
    8.1431    7.6829   21.9046 C   0  0  0  0  0  0  0  0  0  0  0  0
    7.7796   10.1314   21.5115 N   0  0  0  0  0  0  0  0  0  0  0  0
    9.2768    5.6183   21.4437 C   0  0  0  0  0  0  0  0  0  0  0  0
    8.6315    7.7322   23.1768 C   0  0  0  0  0  0  0  0  0  0  0  0
   13.0537    9.9821   20.5781 C   0  0  0  0  0  0  0  0  0  0  0  0
   10.3850    4.6575   23.2386 O   0  0  0  0  0  0  0  0  0  0  0  0
    4.2069    6.8450   20.7994 C   0  0  0  0  0  0  0  0  0  0  0  0
    3.0726   10.1043   19.8522 O   0  0  0  0  0  0  0  0  0  0  0  0
    5.5057    7.1196   21.1155 C   0  0  0  0  0  0  0  0  0  0  0  0
    7.0367   11.0229   21.9948 O   0  0  0  0  0  0  0  0  0  0  0  0
  1  8  4  0
  1 12  4  0
  2  9  1  0
  2 11  4  0
  2 25  4  0
  3 12  4  0
  3 14  1  0
  3 23  4  0
  4 13  4  0
  4 21  4  0
  4 24  1  0
  5  8  4  0
  5 23  4  0
  6 18  2  0
  7 15  4  0
  7 16  1  0
  7 27  4  0
  8 18  1  0
 10 18  1  0
 10 20  1  0
 11 15  4  0
 11 26  1  0
 13 22  4  0
 16 19  1  0
 16 20  2  0
 17 19  4  0
 17 21  4  0
 19 22  4  0
 20 28  1  0
 25 27  4  0
M  END
$$$$

 Created by Python create_sdf_string function

 28 30  0  0  0  0  0  0  0  0999 V2000
   11.4592   11.2893   18.7941 C   0  0  0  0  0  0  0  0  0  0  0  0
    3.4202    7.9009   20.3866 C   0  0  0  0  0  0  0  0  0  0  0  0
   13.5280   10.3522   19.3586 C   0  0  0  0  0  0  0  0  0  0  0  0
    9.6923    5.6468   22.7891 C   0  0  0  0  0  0  0  0  0  0  0  0
   11.7756   10.2554   20.8841 N   0  0  0  0  0  0  0  0  0  0  0  0
    8.9876   11.9370   19.8757 O   0  0  0  0  0  0  0  0  0  0  0  0
    6.0167    8.4478   21.1089 C   0  0  0  0  0  0  0  0  0  0  0  0
   11.0002   10.8890   20.0262 C   0  0  0  0  0  0  0  0  0  0  0  0
    2.1721    7.7393   20.0315 O   0  0  0  0  0  0  0  0  0  0  0  0
    9.1107   10.3880   21.3769 N   0  0  0  0  0  0  0  0  0  0  0  0
    3.9102    9.2008   20.3124 C   0  0  0  0  0  0  0  0  0  0  0  0
   12.7292   10.9960   18.4597 C   0  0  0  0  0  0  0  0  0  0  0  0
    9.3798    6.6793   23.6625 C   0  0  0  0  0  0  0  0  0  0  0  0
   14.7425   10.0739   19.0802 O   0  0  0  0  0  0  0  0  0  0  0  0
    5.1894    9.4673   20.7118 C   0  0  0  0  0  0  0  0  0  0  0  0
    7.3773    8.8224   21.4870 C   0  0  0  0  0  0  0  0  0  0  0  0
    8.4391    6.6439   21.0235 C   0  0  0  0  0  0  0  0  0  0  0  0
    9.6494   11.1353   20.4167 C   0  0  0  0  0  0  0  0  0  0  0  0
    8.1431    7.6829   21.9046 C   0  0  0  0  0  0  0  0  0  0  0  0
    7.7796   10.1314   21.5115 N   0  0  0  0  0  0  0  0  0  0  0  0
    9.2768    5.6183   21.4437 C   0  0  0  0  0  0  0  0  0  0  0  0
    8.6315    7.7322   23.1768 C   0  0  0  0  0  0  0  0  0  0  0  0
   13.0537    9.9821   20.5781 C   0  0  0  0  0  0  0  0  0  0  0  0
   10.3850    4.6575   23.2386 O   0  0  0  0  0  0  0  0  0  0  0  0
    4.2069    6.8450   20.7994 C   0  0  0  0  0  0  0  0  0  0  0  0
    3.0726   10.1043   19.8522 O   0  0  0  0  0  0  0  0  0  0  0  0
    5.5057    7.1196   21.1155 C   0  0  0  0  0  0  0  0  0  0  0  0
    7.0367   11.0229   21.9948 O   0  0  0  0  0  0  0  0  0  0  0  0
  1  8  4  0
  1 12  4  0
  2  9  1  0
  2 11  4  0
  2 25  4  0
  3 12  4  0
  3 14  1  0
  3 23  4  0
  4 13  4  0
  4 21  4  0
  4 24  1  0
  5  8  4  0
  5 23  4  0
  6 18  2  0
  7 15  4  0
  7 16  1  0
  7 27  4  0
  8 18  1  0
 10 18  1  0
 10 20  1  0
 11 15  4  0
 11 26  1  0
 13 22  4  0
 16 19  1  0
 16 20  2  0
 17 19  4  0
 17 21  4  0
 19 22  4  0
 20 28  1  0
 25 27  4  0
M  END
$$$$

 Created by Python create_sdf_string function

 28 30  0  0  0  0  0  0  0  0999 V2000
   11.4592   11.2893   18.7941 C   0  0  0  0  0  0  0  0  0  0  0  0
    3.4202    7.9009   20.3866 C   0  0  0  0  0  0  0  0  0  0  0  0
   13.5280   10.3522   19.3586 C   0  0  0  0  0  0  0  0  0  0  0  0
    9.6923    5.6468   22.7891 C   0  0  0  0  0  0  0  0  0  0  0  0
   11.7756   10.2554   20.8841 N   0  0  0  0  0  0  0  0  0  0  0  0
    8.9876   11.9370   19.8757 O   0  0  0  0  0  0  0  0  0  0  0  0
    6.0167    8.4478   21.1089 C   0  0  0  0  0  0  0  0  0  0  0  0
   11.0002   10.8890   20.0262 C   0  0  0  0  0  0  0  0  0  0  0  0
    2.1721    7.7393   20.0315 O   0  0  0  0  0  0  0  0  0  0  0  0
    9.1107   10.3880   21.3769 N   0  0  0  0  0  0  0  0  0  0  0  0
    3.9102    9.2008   20.3124 C   0  0  0  0  0  0  0  0  0  0  0  0
   12.7292   10.9960   18.4597 C   0  0  0  0  0  0  0  0  0  0  0  0
    9.3798    6.6793   23.6625 C   0  0  0  0  0  0  0  0  0  0  0  0
   14.7425   10.0739   19.0802 O   0  0  0  0  0  0  0  0  0  0  0  0
    5.1894    9.4673   20.7118 C   0  0  0  0  0  0  0  0  0  0  0  0
    7.3773    8.8224   21.4870 C   0  0  0  0  0  0  0  0  0  0  0  0
    8.4391    6.6439   21.0235 C   0  0  0  0  0  0  0  0  0  0  0  0
    9.6494   11.1353   20.4167 C   0  0  0  0  0  0  0  0  0  0  0  0
    8.1431    7.6829   21.9046 C   0  0  0  0  0  0  0  0  0  0  0  0
    7.7796   10.1314   21.5115 N   0  0  0  0  0  0  0  0  0  0  0  0
    9.2768    5.6183   21.4437 C   0  0  0  0  0  0  0  0  0  0  0  0
    8.6315    7.7322   23.1768 C   0  0  0  0  0  0  0  0  0  0  0  0
   13.0537    9.9821   20.5781 C   0  0  0  0  0  0  0  0  0  0  0  0
   10.3850    4.6575   23.2386 O   0  0  0  0  0  0  0  0  0  0  0  0
    4.2069    6.8450   20.7994 C   0  0  0  0  0  0  0  0  0  0  0  0
    3.0726   10.1043   19.8522 O   0  0  0  0  0  0  0  0  0  0  0  0
    5.5057    7.1196   21.1155 C   0  0  0  0  0  0  0  0  0  0  0  0
    7.0367   11.0229   21.9948 O   0  0  0  0  0  0  0  0  0  0  0  0
  1  8  4  0
  1 12  4  0
  2  9  1  0
  2 11  4  0
  2 25  4  0
  3 12  4  0
  3 14  1  0
  3 23  4  0
  4 13  4  0
  4 21  4  0
  4 24  1  0
  5  8  4  0
  5 23  4  0
  6 18  2  0
  7 15  4  0
  7 16  1  0
  7 27  4  0
  8 18  1  0
 10 18  1  0
 10 20  1  0
 11 15  4  0
 11 26  1  0
 13 22  4  0
 16 19  1  0
 16 20  2  0
 17 19  4  0
 17 21  4  0
 19 22  4  0
 20 28  1  0
 25 27  4  0
M  END
$$$$

 Created by Python create_sdf_string function

 28 30  0  0  0  0  0  0  0  0999 V2000
   11.4592   11.2893   18.7941 C   0  0  0  0  0  0  0  0  0  0  0  0
    3.4202    7.9009   20.3866 C   0  0  0  0  0  0  0  0  0  0  0  0
   13.5280   10.3522   19.3586 C   0  0  0  0  0  0  0  0  0  0  0  0
    9.6923    5.6468   22.7891 C   0  0  0  0  0  0  0  0  0  0  0  0
   11.7756   10.2554   20.8841 N   0  0  0  0  0  0  0  0  0  0  0  0
    8.9876   11.9370   19.8757 O   0  0  0  0  0  0  0  0  0  0  0  0
    6.0167    8.4478   21.1089 C   0  0  0  0  0  0  0  0  0  0  0  0
   11.0002   10.8890   20.0262 C   0  0  0  0  0  0  0  0  0  0  0  0
    2.1721    7.7393   20.0315 O   0  0  0  0  0  0  0  0  0  0  0  0
    9.1107   10.3880   21.3769 N   0  0  0  0  0  0  0  0  0  0  0  0
    3.9102    9.2008   20.3124 C   0  0  0  0  0  0  0  0  0  0  0  0
   12.7292   10.9960   18.4597 C   0  0  0  0  0  0  0  0  0  0  0  0
    9.3798    6.6793   23.6625 C   0  0  0  0  0  0  0  0  0  0  0  0
   14.7425   10.0739   19.0802 O   0  0  0  0  0  0  0  0  0  0  0  0
    5.1894    9.4673   20.7118 C   0  0  0  0  0  0  0  0  0  0  0  0
    7.3773    8.8224   21.4870 C   0  0  0  0  0  0  0  0  0  0  0  0
    8.4391    6.6439   21.0235 C   0  0  0  0  0  0  0  0  0  0  0  0
    9.6494   11.1353   20.4167 C   0  0  0  0  0  0  0  0  0  0  0  0
    8.1431    7.6829   21.9046 C   0  0  0  0  0  0  0  0  0  0  0  0
    7.7796   10.1314   21.5115 N   0  0  0  0  0  0  0  0  0  0  0  0
    9.2768    5.6183   21.4437 C   0  0  0  0  0  0  0  0  0  0  0  0
    8.6315    7.7322   23.1768 C   0  0  0  0  0  0  0  0  0  0  0  0
   13.0537    9.9821   20.5781 C   0  0  0  0  0  0  0  0  0  0  0  0
   10.3850    4.6575   23.2386 O   0  0  0  0  0  0  0  0  0  0  0  0
    4.2069    6.8450   20.7994 C   0  0  0  0  0  0  0  0  0  0  0  0
    3.0726   10.1043   19.8522 O   0  0  0  0  0  0  0  0  0  0  0  0
    5.5057    7.1196   21.1155 C   0  0  0  0  0  0  0  0  0  0  0  0
    7.0367   11.0229   21.9948 O   0  0  0  0  0  0  0  0  0  0  0  0
  1  8  4  0
  1 12  4  0
  2  9  1  0
  2 11  4  0
  2 25  4  0
  3 12  4  0
  3 14  1  0
  3 23  4  0
  4 13  4  0
  4 21  4  0
  4 24  1  0
  5  8  4  0
  5 23  4  0
  6 18  2  0
  7 15  4  0
  7 16  1  0
  7 27  4  0
  8 18  1  0
 10 18  1  0
 10 20  1  0
 11 15  4  0
 11 26  1  0
 13 22  4  0
 16 19  1  0
 16 20  2  0
 17 19  4  0
 17 21  4  0
 19 22  4  0
 20 28  1  0
 25 27  4  0
M  END
$$$$

 Created by Python create_sdf_string function

 28 30  0  0  0  0  0  0  0  0999 V2000
   11.4592   11.2893   18.7941 C   0  0  0  0  0  0  0  0  0  0  0  0
    3.4202    7.9009   20.3866 C   0  0  0  0  0  0  0  0  0  0  0  0
   13.5280   10.3522   19.3586 C   0  0  0  0  0  0  0  0  0  0  0  0
    9.6923    5.6468   22.7891 C   0  0  0  0  0  0  0  0  0  0  0  0
   11.7756   10.2554   20.8841 N   0  0  0  0  0  0  0  0  0  0  0  0
    8.9876   11.9370   19.8757 O   0  0  0  0  0  0  0  0  0  0  0  0
    6.0167    8.4478   21.1089 C   0  0  0  0  0  0  0  0  0  0  0  0
   11.0002   10.8890   20.0262 C   0  0  0  0  0  0  0  0  0  0  0  0
    2.1721    7.7393   20.0315 O   0  0  0  0  0  0  0  0  0  0  0  0
    9.1107   10.3880   21.3769 N   0  0  0  0  0  0  0  0  0  0  0  0
    3.9102    9.2008   20.3124 C   0  0  0  0  0  0  0  0  0  0  0  0
   12.7292   10.9960   18.4597 C   0  0  0  0  0  0  0  0  0  0  0  0
    9.3798    6.6793   23.6625 C   0  0  0  0  0  0  0  0  0  0  0  0
   14.7425   10.0739   19.0802 O   0  0  0  0  0  0  0  0  0  0  0  0
    5.1894    9.4673   20.7118 C   0  0  0  0  0  0  0  0  0  0  0  0
    7.3773    8.8224   21.4870 C   0  0  0  0  0  0  0  0  0  0  0  0
    8.4391    6.6439   21.0235 C   0  0  0  0  0  0  0  0  0  0  0  0
    9.6494   11.1353   20.4167 C   0  0  0  0  0  0  0  0  0  0  0  0
    8.1431    7.6829   21.9046 C   0  0  0  0  0  0  0  0  0  0  0  0
    7.7796   10.1314   21.5115 N   0  0  0  0  0  0  0  0  0  0  0  0
    9.2768    5.6183   21.4437 C   0  0  0  0  0  0  0  0  0  0  0  0
    8.6315    7.7322   23.1768 C   0  0  0  0  0  0  0  0  0  0  0  0
   13.0537    9.9821   20.5781 C   0  0  0  0  0  0  0  0  0  0  0  0
   10.3850    4.6575   23.2386 O   0  0  0  0  0  0  0  0  0  0  0  0
    4.2069    6.8450   20.7994 C   0  0  0  0  0  0  0  0  0  0  0  0
    3.0726   10.1043   19.8522 O   0  0  0  0  0  0  0  0  0  0  0  0
    5.5057    7.1196   21.1155 C   0  0  0  0  0  0  0  0  0  0  0  0
    7.0367   11.0229   21.9948 O   0  0  0  0  0  0  0  0  0  0  0  0
  1  8  4  0
  1 12  4  0
  2  9  1  0
  2 11  4  0
  2 25  4  0
  3 12  4  0
  3 14  1  0
  3 23  4  0
  4 13  4  0
  4 21  4  0
  4 24  1  0
  5  8  4  0
  5 23  4  0
  6 18  2  0
  7 15  4  0
  7 16  1  0
  7 27  4  0
  8 18  1  0
 10 18  1  0
 10 20  1  0
 11 15  4  0
 11 26  1  0
 13 22  4  0
 16 19  1  0
 16 20  2  0
 17 19  4  0
 17 21  4  0
 19 22  4  0
 20 28  1  0
 25 27  4  0
M  END
$$$$

 Created by Python create_sdf_string function

 28 30  0  0  0  0  0  0  0  0999 V2000
   11.4592   11.2893   18.7941 C   0  0  0  0  0  0  0  0  0  0  0  0
    3.4202    7.9009   20.3866 C   0  0  0  0  0  0  0  0  0  0  0  0
   13.5280   10.3522   19.3586 C   0  0  0  0  0  0  0  0  0  0  0  0
    9.6923    5.6468   22.7891 C   0  0  0  0  0  0  0  0  0  0  0  0
   11.7756   10.2554   20.8841 N   0  0  0  0  0  0  0  0  0  0  0  0
    8.9876   11.9370   19.8757 O   0  0  0  0  0  0  0  0  0  0  0  0
    6.0167    8.4478   21.1089 C   0  0  0  0  0  0  0  0  0  0  0  0
   11.0002   10.8890   20.0262 C   0  0  0  0  0  0  0  0  0  0  0  0
    2.1721    7.7393   20.0315 O   0  0  0  0  0  0  0  0  0  0  0  0
    9.1107   10.3880   21.3769 N   0  0  0  0  0  0  0  0  0  0  0  0
    3.9102    9.2008   20.3124 C   0  0  0  0  0  0  0  0  0  0  0  0
   12.7292   10.9960   18.4597 C   0  0  0  0  0  0  0  0  0  0  0  0
    9.3798    6.6793   23.6625 C   0  0  0  0  0  0  0  0  0  0  0  0
   14.7425   10.0739   19.0802 O   0  0  0  0  0  0  0  0  0  0  0  0
    5.1894    9.4673   20.7118 C   0  0  0  0  0  0  0  0  0  0  0  0
    7.3773    8.8224   21.4870 C   0  0  0  0  0  0  0  0  0  0  0  0
    8.4391    6.6439   21.0235 C   0  0  0  0  0  0  0  0  0  0  0  0
    9.6494   11.1353   20.4167 C   0  0  0  0  0  0  0  0  0  0  0  0
    8.1431    7.6829   21.9046 C   0  0  0  0  0  0  0  0  0  0  0  0
    7.7796   10.1314   21.5115 N   0  0  0  0  0  0  0  0  0  0  0  0
    9.2768    5.6183   21.4437 C   0  0  0  0  0  0  0  0  0  0  0  0
    8.6315    7.7322   23.1768 C   0  0  0  0  0  0  0  0  0  0  0  0
   13.0537    9.9821   20.5781 C   0  0  0  0  0  0  0  0  0  0  0  0
   10.3850    4.6575   23.2386 O   0  0  0  0  0  0  0  0  0  0  0  0
    4.2069    6.8450   20.7994 C   0  0  0  0  0  0  0  0  0  0  0  0
    3.0726   10.1043   19.8522 O   0  0  0  0  0  0  0  0  0  0  0  0
    5.5057    7.1196   21.1155 C   0  0  0  0  0  0  0  0  0  0  0  0
    7.0367   11.0229   21.9948 O   0  0  0  0  0  0  0  0  0  0  0  0
  1  8  4  0
  1 12  4  0
  2  9  1  0
  2 11  4  0
  2 25  4  0
  3 12  4  0
  3 14  1  0
  3 23  4  0
  4 13  4  0
  4 21  4  0
  4 24  1  0
  5  8  4  0
  5 23  4  0
  6 18  2  0
  7 15  4  0
  7 16  1  0
  7 27  4  0
  8 18  1  0
 10 18  1  0
 10 20  1  0
 11 15  4  0
 11 26  1  0
 13 22  4  0
 16 19  1  0
 16 20  2  0
 17 19  4  0
 17 21  4  0
 19 22  4  0
 20 28  1  0
 25 27  4  0
M  END
$$$$

 Created by Python create_sdf_string function

 28 30  0  0  0  0  0  0  0  0999 V2000
   11.4592   11.2893   18.7941 C   0  0  0  0  0  0  0  0  0  0  0  0
    3.4202    7.9009   20.3866 C   0  0  0  0  0  0  0  0  0  0  0  0
   13.5280   10.3522   19.3586 C   0  0  0  0  0  0  0  0  0  0  0  0
    9.6923    5.6468   22.7891 C   0  0  0  0  0  0  0  0  0  0  0  0
   11.7756   10.2554   20.8841 N   0  0  0  0  0  0  0  0  0  0  0  0
    8.9876   11.9370   19.8757 O   0  0  0  0  0  0  0  0  0  0  0  0
    6.0167    8.4478   21.1089 C   0  0  0  0  0  0  0  0  0  0  0  0
   11.0002   10.8890   20.0262 C   0  0  0  0  0  0  0  0  0  0  0  0
    2.1721    7.7393   20.0315 O   0  0  0  0  0  0  0  0  0  0  0  0
    9.1107   10.3880   21.3769 N   0  0  0  0  0  0  0  0  0  0  0  0
    3.9102    9.2008   20.3124 C   0  0  0  0  0  0  0  0  0  0  0  0
   12.7292   10.9960   18.4597 C   0  0  0  0  0  0  0  0  0  0  0  0
    9.3798    6.6793   23.6625 C   0  0  0  0  0  0  0  0  0  0  0  0
   14.7425   10.0739   19.0802 O   0  0  0  0  0  0  0  0  0  0  0  0
    5.1894    9.4673   20.7118 C   0  0  0  0  0  0  0  0  0  0  0  0
    7.3773    8.8224   21.4870 C   0  0  0  0  0  0  0  0  0  0  0  0
    8.4391    6.6439   21.0235 C   0  0  0  0  0  0  0  0  0  0  0  0
    9.6494   11.1353   20.4167 C   0  0  0  0  0  0  0  0  0  0  0  0
    8.1431    7.6829   21.9046 C   0  0  0  0  0  0  0  0  0  0  0  0
    7.7796   10.1314   21.5115 N   0  0  0  0  0  0  0  0  0  0  0  0
    9.2768    5.6183   21.4437 C   0  0  0  0  0  0  0  0  0  0  0  0
    8.6315    7.7322   23.1768 C   0  0  0  0  0  0  0  0  0  0  0  0
   13.0537    9.9821   20.5781 C   0  0  0  0  0  0  0  0  0  0  0  0
   10.3850    4.6575   23.2386 O   0  0  0  0  0  0  0  0  0  0  0  0
    4.2069    6.8450   20.7994 C   0  0  0  0  0  0  0  0  0  0  0  0
    3.0726   10.1043   19.8522 O   0  0  0  0  0  0  0  0  0  0  0  0
    5.5057    7.1196   21.1155 C   0  0  0  0  0  0  0  0  0  0  0  0
    7.0367   11.0229   21.9948 O   0  0  0  0  0  0  0  0  0  0  0  0
  1  8  4  0
  1 12  4  0
  2  9  1  0
  2 11  4  0
  2 25  4  0
  3 12  4  0
  3 14  1  0
  3 23  4  0
  4 13  4  0
  4 21  4  0
  4 24  1  0
  5  8  4  0
  5 23  4  0
  6 18  2  0
  7 15  4  0
  7 16  1  0
  7 27  4  0
  8 18  1  0
 10 18  1  0
 10 20  1  0
 11 15  4  0
 11 26  1  0
 13 22  4  0
 16 19  1  0
 16 20  2  0
 17 19  4  0
 17 21  4  0
 19 22  4  0
 20 28  1  0
 25 27  4  0
M  END
$$$$

 Created by Python create_sdf_string function

 28 30  0  0  0  0  0  0  0  0999 V2000
   11.4592   11.2893   18.7941 C   0  0  0  0  0  0  0  0  0  0  0  0
    3.4202    7.9009   20.3866 C   0  0  0  0  0  0  0  0  0  0  0  0
   13.5280   10.3522   19.3586 C   0  0  0  0  0  0  0  0  0  0  0  0
    9.6923    5.6468   22.7891 C   0  0  0  0  0  0  0  0  0  0  0  0
   11.7756   10.2554   20.8841 N   0  0  0  0  0  0  0  0  0  0  0  0
    8.9876   11.9370   19.8757 O   0  0  0  0  0  0  0  0  0  0  0  0
    6.0167    8.4478   21.1089 C   0  0  0  0  0  0  0  0  0  0  0  0
   11.0002   10.8890   20.0262 C   0  0  0  0  0  0  0  0  0  0  0  0
    2.1721    7.7393   20.0315 O   0  0  0  0  0  0  0  0  0  0  0  0
    9.1107   10.3880   21.3769 N   0  0  0  0  0  0  0  0  0  0  0  0
    3.9102    9.2008   20.3124 C   0  0  0  0  0  0  0  0  0  0  0  0
   12.7292   10.9960   18.4597 C   0  0  0  0  0  0  0  0  0  0  0  0
    9.3798    6.6793   23.6625 C   0  0  0  0  0  0  0  0  0  0  0  0
   14.7425   10.0739   19.0802 O   0  0  0  0  0  0  0  0  0  0  0  0
    5.1894    9.4673   20.7118 C   0  0  0  0  0  0  0  0  0  0  0  0
    7.3773    8.8224   21.4870 C   0  0  0  0  0  0  0  0  0  0  0  0
    8.4391    6.6439   21.0235 C   0  0  0  0  0  0  0  0  0  0  0  0
    9.6494   11.1353   20.4167 C   0  0  0  0  0  0  0  0  0  0  0  0
    8.1431    7.6829   21.9046 C   0  0  0  0  0  0  0  0  0  0  0  0
    7.7796   10.1314   21.5115 N   0  0  0  0  0  0  0  0  0  0  0  0
    9.2768    5.6183   21.4437 C   0  0  0  0  0  0  0  0  0  0  0  0
    8.6315    7.7322   23.1768 C   0  0  0  0  0  0  0  0  0  0  0  0
   13.0537    9.9821   20.5781 C   0  0  0  0  0  0  0  0  0  0  0  0
   10.3850    4.6575   23.2386 O   0  0  0  0  0  0  0  0  0  0  0  0
    4.2069    6.8450   20.7994 C   0  0  0  0  0  0  0  0  0  0  0  0
    3.0726   10.1043   19.8522 O   0  0  0  0  0  0  0  0  0  0  0  0
    5.5057    7.1196   21.1155 C   0  0  0  0  0  0  0  0  0  0  0  0
    7.0367   11.0229   21.9948 O   0  0  0  0  0  0  0  0  0  0  0  0
  1  8  4  0
  1 12  4  0
  2  9  1  0
  2 11  4  0
  2 25  4  0
  3 12  4  0
  3 14  1  0
  3 23  4  0
  4 13  4  0
  4 21  4  0
  4 24  1  0
  5  8  4  0
  5 23  4  0
  6 18  2  0
  7 15  4  0
  7 16  1  0
  7 27  4  0
  8 18  1  0
 10 18  1  0
 10 20  1  0
 11 15  4  0
 11 26  1  0
 13 22  4  0
 16 19  1  0
 16 20  2  0
 17 19  4  0
 17 21  4  0
 19 22  4  0
 20 28  1  0
 25 27  4  0
M  END
$$$$

 Created by Python create_sdf_string function

 28 30  0  0  0  0  0  0  0  0999 V2000
   11.4592   11.2893   18.7941 C   0  0  0  0  0  0  0  0  0  0  0  0
    3.4202    7.9009   20.3866 C   0  0  0  0  0  0  0  0  0  0  0  0
   13.5280   10.3522   19.3586 C   0  0  0  0  0  0  0  0  0  0  0  0
    9.6923    5.6468   22.7891 C   0  0  0  0  0  0  0  0  0  0  0  0
   11.7756   10.2554   20.8841 N   0  0  0  0  0  0  0  0  0  0  0  0
    8.9876   11.9370   19.8757 O   0  0  0  0  0  0  0  0  0  0  0  0
    6.0167    8.4478   21.1089 C   0  0  0  0  0  0  0  0  0  0  0  0
   11.0002   10.8890   20.0262 C   0  0  0  0  0  0  0  0  0  0  0  0
    2.1721    7.7393   20.0315 O   0  0  0  0  0  0  0  0  0  0  0  0
    9.1107   10.3880   21.3769 N   0  0  0  0  0  0  0  0  0  0  0  0
    3.9102    9.2008   20.3124 C   0  0  0  0  0  0  0  0  0  0  0  0
   12.7292   10.9960   18.4597 C   0  0  0  0  0  0  0  0  0  0  0  0
    9.3798    6.6793   23.6625 C   0  0  0  0  0  0  0  0  0  0  0  0
   14.7425   10.0739   19.0802 O   0  0  0  0  0  0  0  0  0  0  0  0
    5.1894    9.4673   20.7118 C   0  0  0  0  0  0  0  0  0  0  0  0
    7.3773    8.8224   21.4870 C   0  0  0  0  0  0  0  0  0  0  0  0
    8.4391    6.6439   21.0235 C   0  0  0  0  0  0  0  0  0  0  0  0
    9.6494   11.1353   20.4167 C   0  0  0  0  0  0  0  0  0  0  0  0
    8.1431    7.6829   21.9046 C   0  0  0  0  0  0  0  0  0  0  0  0
    7.7796   10.1314   21.5115 N   0  0  0  0  0  0  0  0  0  0  0  0
    9.2768    5.6183   21.4437 C   0  0  0  0  0  0  0  0  0  0  0  0
    8.6315    7.7322   23.1768 C   0  0  0  0  0  0  0  0  0  0  0  0
   13.0537    9.9821   20.5781 C   0  0  0  0  0  0  0  0  0  0  0  0
   10.3850    4.6575   23.2386 O   0  0  0  0  0  0  0  0  0  0  0  0
    4.2069    6.8450   20.7994 C   0  0  0  0  0  0  0  0  0  0  0  0
    3.0726   10.1043   19.8522 O   0  0  0  0  0  0  0  0  0  0  0  0
    5.5057    7.1196   21.1155 C   0  0  0  0  0  0  0  0  0  0  0  0
    7.0367   11.0229   21.9948 O   0  0  0  0  0  0  0  0  0  0  0  0
  1  8  4  0
  1 12  4  0
  2  9  1  0
  2 11  4  0
  2 25  4  0
  3 12  4  0
  3 14  1  0
  3 23  4  0
  4 13  4  0
  4 21  4  0
  4 24  1  0
  5  8  4  0
  5 23  4  0
  6 18  2  0
  7 15  4  0
  7 16  1  0
  7 27  4  0
  8 18  1  0
 10 18  1  0
 10 20  1  0
 11 15  4  0
 11 26  1  0
 13 22  4  0
 16 19  1  0
 16 20  2  0
 17 19  4  0
 17 21  4  0
 19 22  4  0
 20 28  1  0
 25 27  4  0
M  END
$$$$

 Created by Python create_sdf_string function

 28 30  0  0  0  0  0  0  0  0999 V2000
   11.4592   11.2893   18.7941 C   0  0  0  0  0  0  0  0  0  0  0  0
    3.4202    7.9009   20.3866 C   0  0  0  0  0  0  0  0  0  0  0  0
   13.5280   10.3522   19.3586 C   0  0  0  0  0  0  0  0  0  0  0  0
    9.6923    5.6468   22.7891 C   0  0  0  0  0  0  0  0  0  0  0  0
   11.7756   10.2554   20.8841 N   0  0  0  0  0  0  0  0  0  0  0  0
    8.9876   11.9370   19.8757 O   0  0  0  0  0  0  0  0  0  0  0  0
    6.0167    8.4478   21.1089 C   0  0  0  0  0  0  0  0  0  0  0  0
   11.0002   10.8890   20.0262 C   0  0  0  0  0  0  0  0  0  0  0  0
    2.1721    7.7393   20.0315 O   0  0  0  0  0  0  0  0  0  0  0  0
    9.1107   10.3880   21.3769 N   0  0  0  0  0  0  0  0  0  0  0  0
    3.9102    9.2008   20.3124 C   0  0  0  0  0  0  0  0  0  0  0  0
   12.7292   10.9960   18.4597 C   0  0  0  0  0  0  0  0  0  0  0  0
    9.3798    6.6793   23.6625 C   0  0  0  0  0  0  0  0  0  0  0  0
   14.7425   10.0739   19.0802 O   0  0  0  0  0  0  0  0  0  0  0  0
    5.1894    9.4673   20.7118 C   0  0  0  0  0  0  0  0  0  0  0  0
    7.3773    8.8224   21.4870 C   0  0  0  0  0  0  0  0  0  0  0  0
    8.4391    6.6439   21.0235 C   0  0  0  0  0  0  0  0  0  0  0  0
    9.6494   11.1353   20.4167 C   0  0  0  0  0  0  0  0  0  0  0  0
    8.1431    7.6829   21.9046 C   0  0  0  0  0  0  0  0  0  0  0  0
    7.7796   10.1314   21.5115 N   0  0  0  0  0  0  0  0  0  0  0  0
    9.2768    5.6183   21.4437 C   0  0  0  0  0  0  0  0  0  0  0  0
    8.6315    7.7322   23.1768 C   0  0  0  0  0  0  0  0  0  0  0  0
   13.0537    9.9821   20.5781 C   0  0  0  0  0  0  0  0  0  0  0  0
   10.3850    4.6575   23.2386 O   0  0  0  0  0  0  0  0  0  0  0  0
    4.2069    6.8450   20.7994 C   0  0  0  0  0  0  0  0  0  0  0  0
    3.0726   10.1043   19.8522 O   0  0  0  0  0  0  0  0  0  0  0  0
    5.5057    7.1196   21.1155 C   0  0  0  0  0  0  0  0  0  0  0  0
    7.0367   11.0229   21.9948 O   0  0  0  0  0  0  0  0  0  0  0  0
  1  8  4  0
  1 12  4  0
  2  9  1  0
  2 11  4  0
  2 25  4  0
  3 12  4  0
  3 14  1  0
  3 23  4  0
  4 13  4  0
  4 21  4  0
  4 24  1  0
  5  8  4  0
  5 23  4  0
  6 18  2  0
  7 15  4  0
  7 16  1  0
  7 27  4  0
  8 18  1  0
 10 18  1  0
 10 20  1  0
 11 15  4  0
 11 26  1  0
 13 22  4  0
 16 19  1  0
 16 20  2  0
 17 19  4  0
 17 21  4  0
 19 22  4  0
 20 28  1  0
 25 27  4  0
M  END
$$$$

 Created by Python create_sdf_string function

 28 30  0  0  0  0  0  0  0  0999 V2000
   11.4592   11.2893   18.7941 C   0  0  0  0  0  0  0  0  0  0  0  0
    3.4202    7.9009   20.3866 C   0  0  0  0  0  0  0  0  0  0  0  0
   13.5280   10.3522   19.3586 C   0  0  0  0  0  0  0  0  0  0  0  0
    9.6923    5.6468   22.7891 C   0  0  0  0  0  0  0  0  0  0  0  0
   11.7756   10.2554   20.8841 N   0  0  0  0  0  0  0  0  0  0  0  0
    8.9876   11.9370   19.8757 O   0  0  0  0  0  0  0  0  0  0  0  0
    6.0167    8.4478   21.1089 C   0  0  0  0  0  0  0  0  0  0  0  0
   11.0002   10.8890   20.0262 C   0  0  0  0  0  0  0  0  0  0  0  0
    2.1721    7.7393   20.0315 O   0  0  0  0  0  0  0  0  0  0  0  0
    9.1107   10.3880   21.3769 N   0  0  0  0  0  0  0  0  0  0  0  0
    3.9102    9.2008   20.3124 C   0  0  0  0  0  0  0  0  0  0  0  0
   12.7292   10.9960   18.4597 C   0  0  0  0  0  0  0  0  0  0  0  0
    9.3798    6.6793   23.6625 C   0  0  0  0  0  0  0  0  0  0  0  0
   14.7425   10.0739   19.0802 O   0  0  0  0  0  0  0  0  0  0  0  0
    5.1894    9.4673   20.7118 C   0  0  0  0  0  0  0  0  0  0  0  0
    7.3773    8.8224   21.4870 C   0  0  0  0  0  0  0  0  0  0  0  0
    8.4391    6.6439   21.0235 C   0  0  0  0  0  0  0  0  0  0  0  0
    9.6494   11.1353   20.4167 C   0  0  0  0  0  0  0  0  0  0  0  0
    8.1431    7.6829   21.9046 C   0  0  0  0  0  0  0  0  0  0  0  0
    7.7796   10.1314   21.5115 N   0  0  0  0  0  0  0  0  0  0  0  0
    9.2768    5.6183   21.4437 C   0  0  0  0  0  0  0  0  0  0  0  0
    8.6315    7.7322   23.1768 C   0  0  0  0  0  0  0  0  0  0  0  0
   13.0537    9.9821   20.5781 C   0  0  0  0  0  0  0  0  0  0  0  0
   10.3850    4.6575   23.2386 O   0  0  0  0  0  0  0  0  0  0  0  0
    4.2069    6.8450   20.7994 C   0  0  0  0  0  0  0  0  0  0  0  0
    3.0726   10.1043   19.8522 O   0  0  0  0  0  0  0  0  0  0  0  0
    5.5057    7.1196   21.1155 C   0  0  0  0  0  0  0  0  0  0  0  0
    7.0367   11.0229   21.9948 O   0  0  0  0  0  0  0  0  0  0  0  0
  1  8  4  0
  1 12  4  0
  2  9  1  0
  2 11  4  0
  2 25  4  0
  3 12  4  0
  3 14  1  0
  3 23  4  0
  4 13  4  0
  4 21  4  0
  4 24  1  0
  5  8  4  0
  5 23  4  0
  6 18  2  0
  7 15  4  0
  7 16  1  0
  7 27  4  0
  8 18  1  0
 10 18  1  0
 10 20  1  0
 11 15  4  0
 11 26  1  0
 13 22  4  0
 16 19  1  0
 16 20  2  0
 17 19  4  0
 17 21  4  0
 19 22  4  0
 20 28  1  0
 25 27  4  0
M  END
$$$$

 Created by Python create_sdf_string function

 28 30  0  0  0  0  0  0  0  0999 V2000
   11.4592   11.2893   18.7941 C   0  0  0  0  0  0  0  0  0  0  0  0
    3.4202    7.9009   20.3866 C   0  0  0  0  0  0  0  0  0  0  0  0
   13.5280   10.3522   19.3586 C   0  0  0  0  0  0  0  0  0  0  0  0
    9.6923    5.6468   22.7891 C   0  0  0  0  0  0  0  0  0  0  0  0
   11.7756   10.2554   20.8841 N   0  0  0  0  0  0  0  0  0  0  0  0
    8.9876   11.9370   19.8757 O   0  0  0  0  0  0  0  0  0  0  0  0
    6.0167    8.4478   21.1089 C   0  0  0  0  0  0  0  0  0  0  0  0
   11.0002   10.8890   20.0262 C   0  0  0  0  0  0  0  0  0  0  0  0
    2.1721    7.7393   20.0315 O   0  0  0  0  0  0  0  0  0  0  0  0
    9.1107   10.3880   21.3769 N   0  0  0  0  0  0  0  0  0  0  0  0
    3.9102    9.2008   20.3124 C   0  0  0  0  0  0  0  0  0  0  0  0
   12.7292   10.9960   18.4597 C   0  0  0  0  0  0  0  0  0  0  0  0
    9.3798    6.6793   23.6625 C   0  0  0  0  0  0  0  0  0  0  0  0
   14.7425   10.0739   19.0802 O   0  0  0  0  0  0  0  0  0  0  0  0
    5.1894    9.4673   20.7118 C   0  0  0  0  0  0  0  0  0  0  0  0
    7.3773    8.8224   21.4870 C   0  0  0  0  0  0  0  0  0  0  0  0
    8.4391    6.6439   21.0235 C   0  0  0  0  0  0  0  0  0  0  0  0
    9.6494   11.1353   20.4167 C   0  0  0  0  0  0  0  0  0  0  0  0
    8.1431    7.6829   21.9046 C   0  0  0  0  0  0  0  0  0  0  0  0
    7.7796   10.1314   21.5115 N   0  0  0  0  0  0  0  0  0  0  0  0
    9.2768    5.6183   21.4437 C   0  0  0  0  0  0  0  0  0  0  0  0
    8.6315    7.7322   23.1768 C   0  0  0  0  0  0  0  0  0  0  0  0
   13.0537    9.9821   20.5781 C   0  0  0  0  0  0  0  0  0  0  0  0
   10.3850    4.6575   23.2386 O   0  0  0  0  0  0  0  0  0  0  0  0
    4.2069    6.8450   20.7994 C   0  0  0  0  0  0  0  0  0  0  0  0
    3.0726   10.1043   19.8522 O   0  0  0  0  0  0  0  0  0  0  0  0
    5.5057    7.1196   21.1155 C   0  0  0  0  0  0  0  0  0  0  0  0
    7.0367   11.0229   21.9948 O   0  0  0  0  0  0  0  0  0  0  0  0
  1  8  4  0
  1 12  4  0
  2  9  1  0
  2 11  4  0
  2 25  4  0
  3 12  4  0
  3 14  1  0
  3 23  4  0
  4 13  4  0
  4 21  4  0
  4 24  1  0
  5  8  4  0
  5 23  4  0
  6 18  2  0
  7 15  4  0
  7 16  1  0
  7 27  4  0
  8 18  1  0
 10 18  1  0
 10 20  1  0
 11 15  4  0
 11 26  1  0
 13 22  4  0
 16 19  1  0
 16 20  2  0
 17 19  4  0
 17 21  4  0
 19 22  4  0
 20 28  1  0
 25 27  4  0
M  END
$$$$

 Created by Python create_sdf_string function

 28 30  0  0  0  0  0  0  0  0999 V2000
   11.4592   11.2893   18.7941 C   0  0  0  0  0  0  0  0  0  0  0  0
    3.4202    7.9009   20.3866 C   0  0  0  0  0  0  0  0  0  0  0  0
   13.5280   10.3522   19.3586 C   0  0  0  0  0  0  0  0  0  0  0  0
    9.6923    5.6468   22.7891 C   0  0  0  0  0  0  0  0  0  0  0  0
   11.7756   10.2554   20.8841 N   0  0  0  0  0  0  0  0  0  0  0  0
    8.9876   11.9370   19.8757 O   0  0  0  0  0  0  0  0  0  0  0  0
    6.0167    8.4478   21.1089 C   0  0  0  0  0  0  0  0  0  0  0  0
   11.0002   10.8890   20.0262 C   0  0  0  0  0  0  0  0  0  0  0  0
    2.1721    7.7393   20.0315 O   0  0  0  0  0  0  0  0  0  0  0  0
    9.1107   10.3880   21.3769 N   0  0  0  0  0  0  0  0  0  0  0  0
    3.9102    9.2008   20.3124 C   0  0  0  0  0  0  0  0  0  0  0  0
   12.7292   10.9960   18.4597 C   0  0  0  0  0  0  0  0  0  0  0  0
    9.3798    6.6793   23.6625 C   0  0  0  0  0  0  0  0  0  0  0  0
   14.7425   10.0739   19.0802 O   0  0  0  0  0  0  0  0  0  0  0  0
    5.1894    9.4673   20.7118 C   0  0  0  0  0  0  0  0  0  0  0  0
    7.3773    8.8224   21.4870 C   0  0  0  0  0  0  0  0  0  0  0  0
    8.4391    6.6439   21.0235 C   0  0  0  0  0  0  0  0  0  0  0  0
    9.6494   11.1353   20.4167 C   0  0  0  0  0  0  0  0  0  0  0  0
    8.1431    7.6829   21.9046 C   0  0  0  0  0  0  0  0  0  0  0  0
    7.7796   10.1314   21.5115 N   0  0  0  0  0  0  0  0  0  0  0  0
    9.2768    5.6183   21.4437 C   0  0  0  0  0  0  0  0  0  0  0  0
    8.6315    7.7322   23.1768 C   0  0  0  0  0  0  0  0  0  0  0  0
   13.0537    9.9821   20.5781 C   0  0  0  0  0  0  0  0  0  0  0  0
   10.3850    4.6575   23.2386 O   0  0  0  0  0  0  0  0  0  0  0  0
    4.2069    6.8450   20.7994 C   0  0  0  0  0  0  0  0  0  0  0  0
    3.0726   10.1043   19.8522 O   0  0  0  0  0  0  0  0  0  0  0  0
    5.5057    7.1196   21.1155 C   0  0  0  0  0  0  0  0  0  0  0  0
    7.0367   11.0229   21.9948 O   0  0  0  0  0  0  0  0  0  0  0  0
  1  8  4  0
  1 12  4  0
  2  9  1  0
  2 11  4  0
  2 25  4  0
  3 12  4  0
  3 14  1  0
  3 23  4  0
  4 13  4  0
  4 21  4  0
  4 24  1  0
  5  8  4  0
  5 23  4  0
  6 18  2  0
  7 15  4  0
  7 16  1  0
  7 27  4  0
  8 18  1  0
 10 18  1  0
 10 20  1  0
 11 15  4  0
 11 26  1  0
 13 22  4  0
 16 19  1  0
 16 20  2  0
 17 19  4  0
 17 21  4  0
 19 22  4  0
 20 28  1  0
 25 27  4  0
M  END
$$$$

 Created by Python create_sdf_string function

 28 30  0  0  0  0  0  0  0  0999 V2000
   11.4592   11.2893   18.7941 C   0  0  0  0  0  0  0  0  0  0  0  0
    3.4202    7.9009   20.3866 C   0  0  0  0  0  0  0  0  0  0  0  0
   13.5280   10.3522   19.3586 C   0  0  0  0  0  0  0  0  0  0  0  0
    9.6923    5.6468   22.7891 C   0  0  0  0  0  0  0  0  0  0  0  0
   11.7756   10.2554   20.8841 N   0  0  0  0  0  0  0  0  0  0  0  0
    8.9876   11.9370   19.8757 O   0  0  0  0  0  0  0  0  0  0  0  0
    6.0167    8.4478   21.1089 C   0  0  0  0  0  0  0  0  0  0  0  0
   11.0002   10.8890   20.0262 C   0  0  0  0  0  0  0  0  0  0  0  0
    2.1721    7.7393   20.0315 O   0  0  0  0  0  0  0  0  0  0  0  0
    9.1107   10.3880   21.3769 N   0  0  0  0  0  0  0  0  0  0  0  0
    3.9102    9.2008   20.3124 C   0  0  0  0  0  0  0  0  0  0  0  0
   12.7292   10.9960   18.4597 C   0  0  0  0  0  0  0  0  0  0  0  0
    9.3798    6.6793   23.6625 C   0  0  0  0  0  0  0  0  0  0  0  0
   14.7425   10.0739   19.0802 O   0  0  0  0  0  0  0  0  0  0  0  0
    5.1894    9.4673   20.7118 C   0  0  0  0  0  0  0  0  0  0  0  0
    7.3773    8.8224   21.4870 C   0  0  0  0  0  0  0  0  0  0  0  0
    8.4391    6.6439   21.0235 C   0  0  0  0  0  0  0  0  0  0  0  0
    9.6494   11.1353   20.4167 C   0  0  0  0  0  0  0  0  0  0  0  0
    8.1431    7.6829   21.9046 C   0  0  0  0  0  0  0  0  0  0  0  0
    7.7796   10.1314   21.5115 N   0  0  0  0  0  0  0  0  0  0  0  0
    9.2768    5.6183   21.4437 C   0  0  0  0  0  0  0  0  0  0  0  0
    8.6315    7.7322   23.1768 C   0  0  0  0  0  0  0  0  0  0  0  0
   13.0537    9.9821   20.5781 C   0  0  0  0  0  0  0  0  0  0  0  0
   10.3850    4.6575   23.2386 O   0  0  0  0  0  0  0  0  0  0  0  0
    4.2069    6.8450   20.7994 C   0  0  0  0  0  0  0  0  0  0  0  0
    3.0726   10.1043   19.8522 O   0  0  0  0  0  0  0  0  0  0  0  0
    5.5057    7.1196   21.1155 C   0  0  0  0  0  0  0  0  0  0  0  0
    7.0367   11.0229   21.9948 O   0  0  0  0  0  0  0  0  0  0  0  0
  1  8  4  0
  1 12  4  0
  2  9  1  0
  2 11  4  0
  2 25  4  0
  3 12  4  0
  3 14  1  0
  3 23  4  0
  4 13  4  0
  4 21  4  0
  4 24  1  0
  5  8  4  0
  5 23  4  0
  6 18  2  0
  7 15  4  0
  7 16  1  0
  7 27  4  0
  8 18  1  0
 10 18  1  0
 10 20  1  0
 11 15  4  0
 11 26  1  0
 13 22  4  0
 16 19  1  0
 16 20  2  0
 17 19  4  0
 17 21  4  0
 19 22  4  0
 20 28  1  0
 25 27  4  0
M  END
$$$$

 Created by Python create_sdf_string function

 28 30  0  0  0  0  0  0  0  0999 V2000
   11.4592   11.2893   18.7941 C   0  0  0  0  0  0  0  0  0  0  0  0
    3.4202    7.9009   20.3866 C   0  0  0  0  0  0  0  0  0  0  0  0
   13.5280   10.3522   19.3586 C   0  0  0  0  0  0  0  0  0  0  0  0
    9.6923    5.6468   22.7891 C   0  0  0  0  0  0  0  0  0  0  0  0
   11.7756   10.2554   20.8841 N   0  0  0  0  0  0  0  0  0  0  0  0
    8.9876   11.9370   19.8757 O   0  0  0  0  0  0  0  0  0  0  0  0
    6.0167    8.4478   21.1089 C   0  0  0  0  0  0  0  0  0  0  0  0
   11.0002   10.8890   20.0262 C   0  0  0  0  0  0  0  0  0  0  0  0
    2.1721    7.7393   20.0315 O   0  0  0  0  0  0  0  0  0  0  0  0
    9.1107   10.3880   21.3769 N   0  0  0  0  0  0  0  0  0  0  0  0
    3.9102    9.2008   20.3124 C   0  0  0  0  0  0  0  0  0  0  0  0
   12.7292   10.9960   18.4597 C   0  0  0  0  0  0  0  0  0  0  0  0
    9.3798    6.6793   23.6625 C   0  0  0  0  0  0  0  0  0  0  0  0
   14.7425   10.0739   19.0802 O   0  0  0  0  0  0  0  0  0  0  0  0
    5.1894    9.4673   20.7118 C   0  0  0  0  0  0  0  0  0  0  0  0
    7.3773    8.8224   21.4870 C   0  0  0  0  0  0  0  0  0  0  0  0
    8.4391    6.6439   21.0235 C   0  0  0  0  0  0  0  0  0  0  0  0
    9.6494   11.1353   20.4167 C   0  0  0  0  0  0  0  0  0  0  0  0
    8.1431    7.6829   21.9046 C   0  0  0  0  0  0  0  0  0  0  0  0
    7.7796   10.1314   21.5115 N   0  0  0  0  0  0  0  0  0  0  0  0
    9.2768    5.6183   21.4437 C   0  0  0  0  0  0  0  0  0  0  0  0
    8.6315    7.7322   23.1768 C   0  0  0  0  0  0  0  0  0  0  0  0
   13.0537    9.9821   20.5781 C   0  0  0  0  0  0  0  0  0  0  0  0
   10.3850    4.6575   23.2386 O   0  0  0  0  0  0  0  0  0  0  0  0
    4.2069    6.8450   20.7994 C   0  0  0  0  0  0  0  0  0  0  0  0
    3.0726   10.1043   19.8522 O   0  0  0  0  0  0  0  0  0  0  0  0
    5.5057    7.1196   21.1155 C   0  0  0  0  0  0  0  0  0  0  0  0
    7.0367   11.0229   21.9948 O   0  0  0  0  0  0  0  0  0  0  0  0
  1  8  4  0
  1 12  4  0
  2  9  1  0
  2 11  4  0
  2 25  4  0
  3 12  4  0
  3 14  1  0
  3 23  4  0
  4 13  4  0
  4 21  4  0
  4 24  1  0
  5  8  4  0
  5 23  4  0
  6 18  2  0
  7 15  4  0
  7 16  1  0
  7 27  4  0
  8 18  1  0
 10 18  1  0
 10 20  1  0
 11 15  4  0
 11 26  1  0
 13 22  4  0
 16 19  1  0
 16 20  2  0
 17 19  4  0
 17 21  4  0
 19 22  4  0
 20 28  1  0
 25 27  4  0
M  END
$$$$

 Created by Python create_sdf_string function

 28 30  0  0  0  0  0  0  0  0999 V2000
   11.4592   11.2893   18.7941 C   0  0  0  0  0  0  0  0  0  0  0  0
    3.4202    7.9009   20.3866 C   0  0  0  0  0  0  0  0  0  0  0  0
   13.5280   10.3522   19.3586 C   0  0  0  0  0  0  0  0  0  0  0  0
    9.6923    5.6468   22.7891 C   0  0  0  0  0  0  0  0  0  0  0  0
   11.7756   10.2554   20.8841 N   0  0  0  0  0  0  0  0  0  0  0  0
    8.9876   11.9370   19.8757 O   0  0  0  0  0  0  0  0  0  0  0  0
    6.0167    8.4478   21.1089 C   0  0  0  0  0  0  0  0  0  0  0  0
   11.0002   10.8890   20.0262 C   0  0  0  0  0  0  0  0  0  0  0  0
    2.1721    7.7393   20.0315 O   0  0  0  0  0  0  0  0  0  0  0  0
    9.1107   10.3880   21.3769 N   0  0  0  0  0  0  0  0  0  0  0  0
    3.9102    9.2008   20.3124 C   0  0  0  0  0  0  0  0  0  0  0  0
   12.7292   10.9960   18.4597 C   0  0  0  0  0  0  0  0  0  0  0  0
    9.3798    6.6793   23.6625 C   0  0  0  0  0  0  0  0  0  0  0  0
   14.7425   10.0739   19.0802 O   0  0  0  0  0  0  0  0  0  0  0  0
    5.1894    9.4673   20.7118 C   0  0  0  0  0  0  0  0  0  0  0  0
    7.3773    8.8224   21.4870 C   0  0  0  0  0  0  0  0  0  0  0  0
    8.4391    6.6439   21.0235 C   0  0  0  0  0  0  0  0  0  0  0  0
    9.6494   11.1353   20.4167 C   0  0  0  0  0  0  0  0  0  0  0  0
    8.1431    7.6829   21.9046 C   0  0  0  0  0  0  0  0  0  0  0  0
    7.7796   10.1314   21.5115 N   0  0  0  0  0  0  0  0  0  0  0  0
    9.2768    5.6183   21.4437 C   0  0  0  0  0  0  0  0  0  0  0  0
    8.6315    7.7322   23.1768 C   0  0  0  0  0  0  0  0  0  0  0  0
   13.0537    9.9821   20.5781 C   0  0  0  0  0  0  0  0  0  0  0  0
   10.3850    4.6575   23.2386 O   0  0  0  0  0  0  0  0  0  0  0  0
    4.2069    6.8450   20.7994 C   0  0  0  0  0  0  0  0  0  0  0  0
    3.0726   10.1043   19.8522 O   0  0  0  0  0  0  0  0  0  0  0  0
    5.5057    7.1196   21.1155 C   0  0  0  0  0  0  0  0  0  0  0  0
    7.0367   11.0229   21.9948 O   0  0  0  0  0  0  0  0  0  0  0  0
  1  8  4  0
  1 12  4  0
  2  9  1  0
  2 11  4  0
  2 25  4  0
  3 12  4  0
  3 14  1  0
  3 23  4  0
  4 13  4  0
  4 21  4  0
  4 24  1  0
  5  8  4  0
  5 23  4  0
  6 18  2  0
  7 15  4  0
  7 16  1  0
  7 27  4  0
  8 18  1  0
 10 18  1  0
 10 20  1  0
 11 15  4  0
 11 26  1  0
 13 22  4  0
 16 19  1  0
 16 20  2  0
 17 19  4  0
 17 21  4  0
 19 22  4  0
 20 28  1  0
 25 27  4  0
M  END
$$$$

 Created by Python create_sdf_string function

 28 30  0  0  0  0  0  0  0  0999 V2000
   11.4592   11.2893   18.7941 C   0  0  0  0  0  0  0  0  0  0  0  0
    3.4202    7.9009   20.3866 C   0  0  0  0  0  0  0  0  0  0  0  0
   13.5280   10.3522   19.3586 C   0  0  0  0  0  0  0  0  0  0  0  0
    9.6923    5.6468   22.7891 C   0  0  0  0  0  0  0  0  0  0  0  0
   11.7756   10.2554   20.8841 N   0  0  0  0  0  0  0  0  0  0  0  0
    8.9876   11.9370   19.8757 O   0  0  0  0  0  0  0  0  0  0  0  0
    6.0167    8.4478   21.1089 C   0  0  0  0  0  0  0  0  0  0  0  0
   11.0002   10.8890   20.0262 C   0  0  0  0  0  0  0  0  0  0  0  0
    2.1721    7.7393   20.0315 O   0  0  0  0  0  0  0  0  0  0  0  0
    9.1107   10.3880   21.3769 N   0  0  0  0  0  0  0  0  0  0  0  0
    3.9102    9.2008   20.3124 C   0  0  0  0  0  0  0  0  0  0  0  0
   12.7292   10.9960   18.4597 C   0  0  0  0  0  0  0  0  0  0  0  0
    9.3798    6.6793   23.6625 C   0  0  0  0  0  0  0  0  0  0  0  0
   14.7425   10.0739   19.0802 O   0  0  0  0  0  0  0  0  0  0  0  0
    5.1894    9.4673   20.7118 C   0  0  0  0  0  0  0  0  0  0  0  0
    7.3773    8.8224   21.4870 C   0  0  0  0  0  0  0  0  0  0  0  0
    8.4391    6.6439   21.0235 C   0  0  0  0  0  0  0  0  0  0  0  0
    9.6494   11.1353   20.4167 C   0  0  0  0  0  0  0  0  0  0  0  0
    8.1431    7.6829   21.9046 C   0  0  0  0  0  0  0  0  0  0  0  0
    7.7796   10.1314   21.5115 N   0  0  0  0  0  0  0  0  0  0  0  0
    9.2768    5.6183   21.4437 C   0  0  0  0  0  0  0  0  0  0  0  0
    8.6315    7.7322   23.1768 C   0  0  0  0  0  0  0  0  0  0  0  0
   13.0537    9.9821   20.5781 C   0  0  0  0  0  0  0  0  0  0  0  0
   10.3850    4.6575   23.2386 O   0  0  0  0  0  0  0  0  0  0  0  0
    4.2069    6.8450   20.7994 C   0  0  0  0  0  0  0  0  0  0  0  0
    3.0726   10.1043   19.8522 O   0  0  0  0  0  0  0  0  0  0  0  0
    5.5057    7.1196   21.1155 C   0  0  0  0  0  0  0  0  0  0  0  0
    7.0367   11.0229   21.9948 O   0  0  0  0  0  0  0  0  0  0  0  0
  1  8  4  0
  1 12  4  0
  2  9  1  0
  2 11  4  0
  2 25  4  0
  3 12  4  0
  3 14  1  0
  3 23  4  0
  4 13  4  0
  4 21  4  0
  4 24  1  0
  5  8  4  0
  5 23  4  0
  6 18  2  0
  7 15  4  0
  7 16  1  0
  7 27  4  0
  8 18  1  0
 10 18  1  0
 10 20  1  0
 11 15  4  0
 11 26  1  0
 13 22  4  0
 16 19  1  0
 16 20  2  0
 17 19  4  0
 17 21  4  0
 19 22  4  0
 20 28  1  0
 25 27  4  0
M  END
$$$$

 Created by Python create_sdf_string function

 28 30  0  0  0  0  0  0  0  0999 V2000
   11.4592   11.2893   18.7941 C   0  0  0  0  0  0  0  0  0  0  0  0
    3.4202    7.9009   20.3866 C   0  0  0  0  0  0  0  0  0  0  0  0
   13.5280   10.3522   19.3586 C   0  0  0  0  0  0  0  0  0  0  0  0
    9.6923    5.6468   22.7891 C   0  0  0  0  0  0  0  0  0  0  0  0
   11.7756   10.2554   20.8841 N   0  0  0  0  0  0  0  0  0  0  0  0
    8.9876   11.9370   19.8757 O   0  0  0  0  0  0  0  0  0  0  0  0
    6.0167    8.4478   21.1089 C   0  0  0  0  0  0  0  0  0  0  0  0
   11.0002   10.8890   20.0262 C   0  0  0  0  0  0  0  0  0  0  0  0
    2.1721    7.7393   20.0315 O   0  0  0  0  0  0  0  0  0  0  0  0
    9.1107   10.3880   21.3769 N   0  0  0  0  0  0  0  0  0  0  0  0
    3.9102    9.2008   20.3124 C   0  0  0  0  0  0  0  0  0  0  0  0
   12.7292   10.9960   18.4597 C   0  0  0  0  0  0  0  0  0  0  0  0
    9.3798    6.6793   23.6625 C   0  0  0  0  0  0  0  0  0  0  0  0
   14.7425   10.0739   19.0802 O   0  0  0  0  0  0  0  0  0  0  0  0
    5.1894    9.4673   20.7118 C   0  0  0  0  0  0  0  0  0  0  0  0
    7.3773    8.8224   21.4870 C   0  0  0  0  0  0  0  0  0  0  0  0
    8.4391    6.6439   21.0235 C   0  0  0  0  0  0  0  0  0  0  0  0
    9.6494   11.1353   20.4167 C   0  0  0  0  0  0  0  0  0  0  0  0
    8.1431    7.6829   21.9046 C   0  0  0  0  0  0  0  0  0  0  0  0
    7.7796   10.1314   21.5115 N   0  0  0  0  0  0  0  0  0  0  0  0
    9.2768    5.6183   21.4437 C   0  0  0  0  0  0  0  0  0  0  0  0
    8.6315    7.7322   23.1768 C   0  0  0  0  0  0  0  0  0  0  0  0
   13.0537    9.9821   20.5781 C   0  0  0  0  0  0  0  0  0  0  0  0
   10.3850    4.6575   23.2386 O   0  0  0  0  0  0  0  0  0  0  0  0
    4.2069    6.8450   20.7994 C   0  0  0  0  0  0  0  0  0  0  0  0
    3.0726   10.1043   19.8522 O   0  0  0  0  0  0  0  0  0  0  0  0
    5.5057    7.1196   21.1155 C   0  0  0  0  0  0  0  0  0  0  0  0
    7.0367   11.0229   21.9948 O   0  0  0  0  0  0  0  0  0  0  0  0
  1  8  4  0
  1 12  4  0
  2  9  1  0
  2 11  4  0
  2 25  4  0
  3 12  4  0
  3 14  1  0
  3 23  4  0
  4 13  4  0
  4 21  4  0
  4 24  1  0
  5  8  4  0
  5 23  4  0
  6 18  2  0
  7 15  4  0
  7 16  1  0
  7 27  4  0
  8 18  1  0
 10 18  1  0
 10 20  1  0
 11 15  4  0
 11 26  1  0
 13 22  4  0
 16 19  1  0
 16 20  2  0
 17 19  4  0
 17 21  4  0
 19 22  4  0
 20 28  1  0
 25 27  4  0
M  END
$$$$

 Created by Python create_sdf_string function

 28 30  0  0  0  0  0  0  0  0999 V2000
   11.4592   11.2893   18.7941 C   0  0  0  0  0  0  0  0  0  0  0  0
    3.4202    7.9009   20.3866 C   0  0  0  0  0  0  0  0  0  0  0  0
   13.5280   10.3522   19.3586 C   0  0  0  0  0  0  0  0  0  0  0  0
    9.6923    5.6468   22.7891 C   0  0  0  0  0  0  0  0  0  0  0  0
   11.7756   10.2554   20.8841 N   0  0  0  0  0  0  0  0  0  0  0  0
    8.9876   11.9370   19.8757 O   0  0  0  0  0  0  0  0  0  0  0  0
    6.0167    8.4478   21.1089 C   0  0  0  0  0  0  0  0  0  0  0  0
   11.0002   10.8890   20.0262 C   0  0  0  0  0  0  0  0  0  0  0  0
    2.1721    7.7393   20.0315 O   0  0  0  0  0  0  0  0  0  0  0  0
    9.1107   10.3880   21.3769 N   0  0  0  0  0  0  0  0  0  0  0  0
    3.9102    9.2008   20.3124 C   0  0  0  0  0  0  0  0  0  0  0  0
   12.7292   10.9960   18.4597 C   0  0  0  0  0  0  0  0  0  0  0  0
    9.3798    6.6793   23.6625 C   0  0  0  0  0  0  0  0  0  0  0  0
   14.7425   10.0739   19.0802 O   0  0  0  0  0  0  0  0  0  0  0  0
    5.1894    9.4673   20.7118 C   0  0  0  0  0  0  0  0  0  0  0  0
    7.3773    8.8224   21.4870 C   0  0  0  0  0  0  0  0  0  0  0  0
    8.4391    6.6439   21.0235 C   0  0  0  0  0  0  0  0  0  0  0  0
    9.6494   11.1353   20.4167 C   0  0  0  0  0  0  0  0  0  0  0  0
    8.1431    7.6829   21.9046 C   0  0  0  0  0  0  0  0  0  0  0  0
    7.7796   10.1314   21.5115 N   0  0  0  0  0  0  0  0  0  0  0  0
    9.2768    5.6183   21.4437 C   0  0  0  0  0  0  0  0  0  0  0  0
    8.6315    7.7322   23.1768 C   0  0  0  0  0  0  0  0  0  0  0  0
   13.0537    9.9821   20.5781 C   0  0  0  0  0  0  0  0  0  0  0  0
   10.3850    4.6575   23.2386 O   0  0  0  0  0  0  0  0  0  0  0  0
    4.2069    6.8450   20.7994 C   0  0  0  0  0  0  0  0  0  0  0  0
    3.0726   10.1043   19.8522 O   0  0  0  0  0  0  0  0  0  0  0  0
    5.5057    7.1196   21.1155 C   0  0  0  0  0  0  0  0  0  0  0  0
    7.0367   11.0229   21.9948 O   0  0  0  0  0  0  0  0  0  0  0  0
  1  8  4  0
  1 12  4  0
  2  9  1  0
  2 11  4  0
  2 25  4  0
  3 12  4  0
  3 14  1  0
  3 23  4  0
  4 13  4  0
  4 21  4  0
  4 24  1  0
  5  8  4  0
  5 23  4  0
  6 18  2  0
  7 15  4  0
  7 16  1  0
  7 27  4  0
  8 18  1  0
 10 18  1  0
 10 20  1  0
 11 15  4  0
 11 26  1  0
 13 22  4  0
 16 19  1  0
 16 20  2  0
 17 19  4  0
 17 21  4  0
 19 22  4  0
 20 28  1  0
 25 27  4  0
M  END
$$$$

 Created by Python create_sdf_string function

 28 30  0  0  0  0  0  0  0  0999 V2000
   11.4592   11.2893   18.7941 C   0  0  0  0  0  0  0  0  0  0  0  0
    3.4202    7.9009   20.3866 C   0  0  0  0  0  0  0  0  0  0  0  0
   13.5280   10.3522   19.3586 C   0  0  0  0  0  0  0  0  0  0  0  0
    9.6923    5.6468   22.7891 C   0  0  0  0  0  0  0  0  0  0  0  0
   11.7756   10.2554   20.8841 N   0  0  0  0  0  0  0  0  0  0  0  0
    8.9876   11.9370   19.8757 O   0  0  0  0  0  0  0  0  0  0  0  0
    6.0167    8.4478   21.1089 C   0  0  0  0  0  0  0  0  0  0  0  0
   11.0002   10.8890   20.0262 C   0  0  0  0  0  0  0  0  0  0  0  0
    2.1721    7.7393   20.0315 O   0  0  0  0  0  0  0  0  0  0  0  0
    9.1107   10.3880   21.3769 N   0  0  0  0  0  0  0  0  0  0  0  0
    3.9102    9.2008   20.3124 C   0  0  0  0  0  0  0  0  0  0  0  0
   12.7292   10.9960   18.4597 C   0  0  0  0  0  0  0  0  0  0  0  0
    9.3798    6.6793   23.6625 C   0  0  0  0  0  0  0  0  0  0  0  0
   14.7425   10.0739   19.0802 O   0  0  0  0  0  0  0  0  0  0  0  0
    5.1894    9.4673   20.7118 C   0  0  0  0  0  0  0  0  0  0  0  0
    7.3773    8.8224   21.4870 C   0  0  0  0  0  0  0  0  0  0  0  0
    8.4391    6.6439   21.0235 C   0  0  0  0  0  0  0  0  0  0  0  0
    9.6494   11.1353   20.4167 C   0  0  0  0  0  0  0  0  0  0  0  0
    8.1431    7.6829   21.9046 C   0  0  0  0  0  0  0  0  0  0  0  0
    7.7796   10.1314   21.5115 N   0  0  0  0  0  0  0  0  0  0  0  0
    9.2768    5.6183   21.4437 C   0  0  0  0  0  0  0  0  0  0  0  0
    8.6315    7.7322   23.1768 C   0  0  0  0  0  0  0  0  0  0  0  0
   13.0537    9.9821   20.5781 C   0  0  0  0  0  0  0  0  0  0  0  0
   10.3850    4.6575   23.2386 O   0  0  0  0  0  0  0  0  0  0  0  0
    4.2069    6.8450   20.7994 C   0  0  0  0  0  0  0  0  0  0  0  0
    3.0726   10.1043   19.8522 O   0  0  0  0  0  0  0  0  0  0  0  0
    5.5057    7.1196   21.1155 C   0  0  0  0  0  0  0  0  0  0  0  0
    7.0367   11.0229   21.9948 O   0  0  0  0  0  0  0  0  0  0  0  0
  1  8  4  0
  1 12  4  0
  2  9  1  0
  2 11  4  0
  2 25  4  0
  3 12  4  0
  3 14  1  0
  3 23  4  0
  4 13  4  0
  4 21  4  0
  4 24  1  0
  5  8  4  0
  5 23  4  0
  6 18  2  0
  7 15  4  0
  7 16  1  0
  7 27  4  0
  8 18  1  0
 10 18  1  0
 10 20  1  0
 11 15  4  0
 11 26  1  0
 13 22  4  0
 16 19  1  0
 16 20  2  0
 17 19  4  0
 17 21  4  0
 19 22  4  0
 20 28  1  0
 25 27  4  0
M  END
$$$$

 Created by Python create_sdf_string function

 28 30  0  0  0  0  0  0  0  0999 V2000
   11.4592   11.2893   18.7941 C   0  0  0  0  0  0  0  0  0  0  0  0
    3.4202    7.9009   20.3866 C   0  0  0  0  0  0  0  0  0  0  0  0
   13.5280   10.3522   19.3586 C   0  0  0  0  0  0  0  0  0  0  0  0
    9.6923    5.6468   22.7891 C   0  0  0  0  0  0  0  0  0  0  0  0
   11.7756   10.2554   20.8841 N   0  0  0  0  0  0  0  0  0  0  0  0
    8.9876   11.9370   19.8757 O   0  0  0  0  0  0  0  0  0  0  0  0
    6.0167    8.4478   21.1089 C   0  0  0  0  0  0  0  0  0  0  0  0
   11.0002   10.8890   20.0262 C   0  0  0  0  0  0  0  0  0  0  0  0
    2.1721    7.7393   20.0315 O   0  0  0  0  0  0  0  0  0  0  0  0
    9.1107   10.3880   21.3769 N   0  0  0  0  0  0  0  0  0  0  0  0
    3.9102    9.2008   20.3124 C   0  0  0  0  0  0  0  0  0  0  0  0
   12.7292   10.9960   18.4597 C   0  0  0  0  0  0  0  0  0  0  0  0
    9.3798    6.6793   23.6625 C   0  0  0  0  0  0  0  0  0  0  0  0
   14.7425   10.0739   19.0802 O   0  0  0  0  0  0  0  0  0  0  0  0
    5.1894    9.4673   20.7118 C   0  0  0  0  0  0  0  0  0  0  0  0
    7.3773    8.8224   21.4870 C   0  0  0  0  0  0  0  0  0  0  0  0
    8.4391    6.6439   21.0235 C   0  0  0  0  0  0  0  0  0  0  0  0
    9.6494   11.1353   20.4167 C   0  0  0  0  0  0  0  0  0  0  0  0
    8.1431    7.6829   21.9046 C   0  0  0  0  0  0  0  0  0  0  0  0
    7.7796   10.1314   21.5115 N   0  0  0  0  0  0  0  0  0  0  0  0
    9.2768    5.6183   21.4437 C   0  0  0  0  0  0  0  0  0  0  0  0
    8.6315    7.7322   23.1768 C   0  0  0  0  0  0  0  0  0  0  0  0
   13.0537    9.9821   20.5781 C   0  0  0  0  0  0  0  0  0  0  0  0
   10.3850    4.6575   23.2386 O   0  0  0  0  0  0  0  0  0  0  0  0
    4.2069    6.8450   20.7994 C   0  0  0  0  0  0  0  0  0  0  0  0
    3.0726   10.1043   19.8522 O   0  0  0  0  0  0  0  0  0  0  0  0
    5.5057    7.1196   21.1155 C   0  0  0  0  0  0  0  0  0  0  0  0
    7.0367   11.0229   21.9948 O   0  0  0  0  0  0  0  0  0  0  0  0
  1  8  4  0
  1 12  4  0
  2  9  1  0
  2 11  4  0
  2 25  4  0
  3 12  4  0
  3 14  1  0
  3 23  4  0
  4 13  4  0
  4 21  4  0
  4 24  1  0
  5  8  4  0
  5 23  4  0
  6 18  2  0
  7 15  4  0
  7 16  1  0
  7 27  4  0
  8 18  1  0
 10 18  1  0
 10 20  1  0
 11 15  4  0
 11 26  1  0
 13 22  4  0
 16 19  1  0
 16 20  2  0
 17 19  4  0
 17 21  4  0
 19 22  4  0
 20 28  1  0
 25 27  4  0
M  END
$$$$

 Created by Python create_sdf_string function

 28 30  0  0  0  0  0  0  0  0999 V2000
   11.4592   11.2893   18.7941 C   0  0  0  0  0  0  0  0  0  0  0  0
    3.4202    7.9009   20.3866 C   0  0  0  0  0  0  0  0  0  0  0  0
   13.5280   10.3522   19.3586 C   0  0  0  0  0  0  0  0  0  0  0  0
    9.6923    5.6468   22.7891 C   0  0  0  0  0  0  0  0  0  0  0  0
   11.7756   10.2554   20.8841 N   0  0  0  0  0  0  0  0  0  0  0  0
    8.9876   11.9370   19.8757 O   0  0  0  0  0  0  0  0  0  0  0  0
    6.0167    8.4478   21.1089 C   0  0  0  0  0  0  0  0  0  0  0  0
   11.0002   10.8890   20.0262 C   0  0  0  0  0  0  0  0  0  0  0  0
    2.1721    7.7393   20.0315 O   0  0  0  0  0  0  0  0  0  0  0  0
    9.1107   10.3880   21.3769 N   0  0  0  0  0  0  0  0  0  0  0  0
    3.9102    9.2008   20.3124 C   0  0  0  0  0  0  0  0  0  0  0  0
   12.7292   10.9960   18.4597 C   0  0  0  0  0  0  0  0  0  0  0  0
    9.3798    6.6793   23.6625 C   0  0  0  0  0  0  0  0  0  0  0  0
   14.7425   10.0739   19.0802 O   0  0  0  0  0  0  0  0  0  0  0  0
    5.1894    9.4673   20.7118 C   0  0  0  0  0  0  0  0  0  0  0  0
    7.3773    8.8224   21.4870 C   0  0  0  0  0  0  0  0  0  0  0  0
    8.4391    6.6439   21.0235 C   0  0  0  0  0  0  0  0  0  0  0  0
    9.6494   11.1353   20.4167 C   0  0  0  0  0  0  0  0  0  0  0  0
    8.1431    7.6829   21.9046 C   0  0  0  0  0  0  0  0  0  0  0  0
    7.7796   10.1314   21.5115 N   0  0  0  0  0  0  0  0  0  0  0  0
    9.2768    5.6183   21.4437 C   0  0  0  0  0  0  0  0  0  0  0  0
    8.6315    7.7322   23.1768 C   0  0  0  0  0  0  0  0  0  0  0  0
   13.0537    9.9821   20.5781 C   0  0  0  0  0  0  0  0  0  0  0  0
   10.3850    4.6575   23.2386 O   0  0  0  0  0  0  0  0  0  0  0  0
    4.2069    6.8450   20.7994 C   0  0  0  0  0  0  0  0  0  0  0  0
    3.0726   10.1043   19.8522 O   0  0  0  0  0  0  0  0  0  0  0  0
    5.5057    7.1196   21.1155 C   0  0  0  0  0  0  0  0  0  0  0  0
    7.0367   11.0229   21.9948 O   0  0  0  0  0  0  0  0  0  0  0  0
  1  8  4  0
  1 12  4  0
  2  9  1  0
  2 11  4  0
  2 25  4  0
  3 12  4  0
  3 14  1  0
  3 23  4  0
  4 13  4  0
  4 21  4  0
  4 24  1  0
  5  8  4  0
  5 23  4  0
  6 18  2  0
  7 15  4  0
  7 16  1  0
  7 27  4  0
  8 18  1  0
 10 18  1  0
 10 20  1  0
 11 15  4  0
 11 26  1  0
 13 22  4  0
 16 19  1  0
 16 20  2  0
 17 19  4  0
 17 21  4  0
 19 22  4  0
 20 28  1  0
 25 27  4  0
M  END
$$$$

 Created by Python create_sdf_string function

 28 30  0  0  0  0  0  0  0  0999 V2000
   11.4592   11.2893   18.7941 C   0  0  0  0  0  0  0  0  0  0  0  0
    3.4202    7.9009   20.3866 C   0  0  0  0  0  0  0  0  0  0  0  0
   13.5280   10.3522   19.3586 C   0  0  0  0  0  0  0  0  0  0  0  0
    9.6923    5.6468   22.7891 C   0  0  0  0  0  0  0  0  0  0  0  0
   11.7756   10.2554   20.8841 N   0  0  0  0  0  0  0  0  0  0  0  0
    8.9876   11.9370   19.8757 O   0  0  0  0  0  0  0  0  0  0  0  0
    6.0167    8.4478   21.1089 C   0  0  0  0  0  0  0  0  0  0  0  0
   11.0002   10.8890   20.0262 C   0  0  0  0  0  0  0  0  0  0  0  0
    2.1721    7.7393   20.0315 O   0  0  0  0  0  0  0  0  0  0  0  0
    9.1107   10.3880   21.3769 N   0  0  0  0  0  0  0  0  0  0  0  0
    3.9102    9.2008   20.3124 C   0  0  0  0  0  0  0  0  0  0  0  0
   12.7292   10.9960   18.4597 C   0  0  0  0  0  0  0  0  0  0  0  0
    9.3798    6.6793   23.6625 C   0  0  0  0  0  0  0  0  0  0  0  0
   14.7425   10.0739   19.0802 O   0  0  0  0  0  0  0  0  0  0  0  0
    5.1894    9.4673   20.7118 C   0  0  0  0  0  0  0  0  0  0  0  0
    7.3773    8.8224   21.4870 C   0  0  0  0  0  0  0  0  0  0  0  0
    8.4391    6.6439   21.0235 C   0  0  0  0  0  0  0  0  0  0  0  0
    9.6494   11.1353   20.4167 C   0  0  0  0  0  0  0  0  0  0  0  0
    8.1431    7.6829   21.9046 C   0  0  0  0  0  0  0  0  0  0  0  0
    7.7796   10.1314   21.5115 N   0  0  0  0  0  0  0  0  0  0  0  0
    9.2768    5.6183   21.4437 C   0  0  0  0  0  0  0  0  0  0  0  0
    8.6315    7.7322   23.1768 C   0  0  0  0  0  0  0  0  0  0  0  0
   13.0537    9.9821   20.5781 C   0  0  0  0  0  0  0  0  0  0  0  0
   10.3850    4.6575   23.2386 O   0  0  0  0  0  0  0  0  0  0  0  0
    4.2069    6.8450   20.7994 C   0  0  0  0  0  0  0  0  0  0  0  0
    3.0726   10.1043   19.8522 O   0  0  0  0  0  0  0  0  0  0  0  0
    5.5057    7.1196   21.1155 C   0  0  0  0  0  0  0  0  0  0  0  0
    7.0367   11.0229   21.9948 O   0  0  0  0  0  0  0  0  0  0  0  0
  1  8  4  0
  1 12  4  0
  2  9  1  0
  2 11  4  0
  2 25  4  0
  3 12  4  0
  3 14  1  0
  3 23  4  0
  4 13  4  0
  4 21  4  0
  4 24  1  0
  5  8  4  0
  5 23  4  0
  6 18  2  0
  7 15  4  0
  7 16  1  0
  7 27  4  0
  8 18  1  0
 10 18  1  0
 10 20  1  0
 11 15  4  0
 11 26  1  0
 13 22  4  0
 16 19  1  0
 16 20  2  0
 17 19  4  0
 17 21  4  0
 19 22  4  0
 20 28  1  0
 25 27  4  0
M  END
$$$$

 Created by Python create_sdf_string function

 28 30  0  0  0  0  0  0  0  0999 V2000
   11.4592   11.2893   18.7941 C   0  0  0  0  0  0  0  0  0  0  0  0
    3.4202    7.9009   20.3866 C   0  0  0  0  0  0  0  0  0  0  0  0
   13.5280   10.3522   19.3586 C   0  0  0  0  0  0  0  0  0  0  0  0
    9.6923    5.6468   22.7891 C   0  0  0  0  0  0  0  0  0  0  0  0
   11.7756   10.2554   20.8841 N   0  0  0  0  0  0  0  0  0  0  0  0
    8.9876   11.9370   19.8757 O   0  0  0  0  0  0  0  0  0  0  0  0
    6.0167    8.4478   21.1089 C   0  0  0  0  0  0  0  0  0  0  0  0
   11.0002   10.8890   20.0262 C   0  0  0  0  0  0  0  0  0  0  0  0
    2.1721    7.7393   20.0315 O   0  0  0  0  0  0  0  0  0  0  0  0
    9.1107   10.3880   21.3769 N   0  0  0  0  0  0  0  0  0  0  0  0
    3.9102    9.2008   20.3124 C   0  0  0  0  0  0  0  0  0  0  0  0
   12.7292   10.9960   18.4597 C   0  0  0  0  0  0  0  0  0  0  0  0
    9.3798    6.6793   23.6625 C   0  0  0  0  0  0  0  0  0  0  0  0
   14.7425   10.0739   19.0802 O   0  0  0  0  0  0  0  0  0  0  0  0
    5.1894    9.4673   20.7118 C   0  0  0  0  0  0  0  0  0  0  0  0
    7.3773    8.8224   21.4870 C   0  0  0  0  0  0  0  0  0  0  0  0
    8.4391    6.6439   21.0235 C   0  0  0  0  0  0  0  0  0  0  0  0
    9.6494   11.1353   20.4167 C   0  0  0  0  0  0  0  0  0  0  0  0
    8.1431    7.6829   21.9046 C   0  0  0  0  0  0  0  0  0  0  0  0
    7.7796   10.1314   21.5115 N   0  0  0  0  0  0  0  0  0  0  0  0
    9.2768    5.6183   21.4437 C   0  0  0  0  0  0  0  0  0  0  0  0
    8.6315    7.7322   23.1768 C   0  0  0  0  0  0  0  0  0  0  0  0
   13.0537    9.9821   20.5781 C   0  0  0  0  0  0  0  0  0  0  0  0
   10.3850    4.6575   23.2386 O   0  0  0  0  0  0  0  0  0  0  0  0
    4.2069    6.8450   20.7994 C   0  0  0  0  0  0  0  0  0  0  0  0
    3.0726   10.1043   19.8522 O   0  0  0  0  0  0  0  0  0  0  0  0
    5.5057    7.1196   21.1155 C   0  0  0  0  0  0  0  0  0  0  0  0
    7.0367   11.0229   21.9948 O   0  0  0  0  0  0  0  0  0  0  0  0
  1  8  4  0
  1 12  4  0
  2  9  1  0
  2 11  4  0
  2 25  4  0
  3 12  4  0
  3 14  1  0
  3 23  4  0
  4 13  4  0
  4 21  4  0
  4 24  1  0
  5  8  4  0
  5 23  4  0
  6 18  2  0
  7 15  4  0
  7 16  1  0
  7 27  4  0
  8 18  1  0
 10 18  1  0
 10 20  1  0
 11 15  4  0
 11 26  1  0
 13 22  4  0
 16 19  1  0
 16 20  2  0
 17 19  4  0
 17 21  4  0
 19 22  4  0
 20 28  1  0
 25 27  4  0
M  END
$$$$

 Created by Python create_sdf_string function

 28 30  0  0  0  0  0  0  0  0999 V2000
   11.4592   11.2893   18.7941 C   0  0  0  0  0  0  0  0  0  0  0  0
    3.4202    7.9009   20.3866 C   0  0  0  0  0  0  0  0  0  0  0  0
   13.5280   10.3522   19.3586 C   0  0  0  0  0  0  0  0  0  0  0  0
    9.6923    5.6468   22.7891 C   0  0  0  0  0  0  0  0  0  0  0  0
   11.7756   10.2554   20.8841 N   0  0  0  0  0  0  0  0  0  0  0  0
    8.9876   11.9370   19.8757 O   0  0  0  0  0  0  0  0  0  0  0  0
    6.0167    8.4478   21.1089 C   0  0  0  0  0  0  0  0  0  0  0  0
   11.0002   10.8890   20.0262 C   0  0  0  0  0  0  0  0  0  0  0  0
    2.1721    7.7393   20.0315 O   0  0  0  0  0  0  0  0  0  0  0  0
    9.1107   10.3880   21.3769 N   0  0  0  0  0  0  0  0  0  0  0  0
    3.9102    9.2008   20.3124 C   0  0  0  0  0  0  0  0  0  0  0  0
   12.7292   10.9960   18.4597 C   0  0  0  0  0  0  0  0  0  0  0  0
    9.3798    6.6793   23.6625 C   0  0  0  0  0  0  0  0  0  0  0  0
   14.7425   10.0739   19.0802 O   0  0  0  0  0  0  0  0  0  0  0  0
    5.1894    9.4673   20.7118 C   0  0  0  0  0  0  0  0  0  0  0  0
    7.3773    8.8224   21.4870 C   0  0  0  0  0  0  0  0  0  0  0  0
    8.4391    6.6439   21.0235 C   0  0  0  0  0  0  0  0  0  0  0  0
    9.6494   11.1353   20.4167 C   0  0  0  0  0  0  0  0  0  0  0  0
    8.1431    7.6829   21.9046 C   0  0  0  0  0  0  0  0  0  0  0  0
    7.7796   10.1314   21.5115 N   0  0  0  0  0  0  0  0  0  0  0  0
    9.2768    5.6183   21.4437 C   0  0  0  0  0  0  0  0  0  0  0  0
    8.6315    7.7322   23.1768 C   0  0  0  0  0  0  0  0  0  0  0  0
   13.0537    9.9821   20.5781 C   0  0  0  0  0  0  0  0  0  0  0  0
   10.3850    4.6575   23.2386 O   0  0  0  0  0  0  0  0  0  0  0  0
    4.2069    6.8450   20.7994 C   0  0  0  0  0  0  0  0  0  0  0  0
    3.0726   10.1043   19.8522 O   0  0  0  0  0  0  0  0  0  0  0  0
    5.5057    7.1196   21.1155 C   0  0  0  0  0  0  0  0  0  0  0  0
    7.0367   11.0229   21.9948 O   0  0  0  0  0  0  0  0  0  0  0  0
  1  8  4  0
  1 12  4  0
  2  9  1  0
  2 11  4  0
  2 25  4  0
  3 12  4  0
  3 14  1  0
  3 23  4  0
  4 13  4  0
  4 21  4  0
  4 24  1  0
  5  8  4  0
  5 23  4  0
  6 18  2  0
  7 15  4  0
  7 16  1  0
  7 27  4  0
  8 18  1  0
 10 18  1  0
 10 20  1  0
 11 15  4  0
 11 26  1  0
 13 22  4  0
 16 19  1  0
 16 20  2  0
 17 19  4  0
 17 21  4  0
 19 22  4  0
 20 28  1  0
 25 27  4  0
M  END
$$$$

 Created by Python create_sdf_string function

 28 30  0  0  0  0  0  0  0  0999 V2000
   11.4592   11.2893   18.7941 C   0  0  0  0  0  0  0  0  0  0  0  0
    3.4202    7.9009   20.3866 C   0  0  0  0  0  0  0  0  0  0  0  0
   13.5280   10.3522   19.3586 C   0  0  0  0  0  0  0  0  0  0  0  0
    9.6923    5.6468   22.7891 C   0  0  0  0  0  0  0  0  0  0  0  0
   11.7756   10.2554   20.8841 N   0  0  0  0  0  0  0  0  0  0  0  0
    8.9876   11.9370   19.8757 O   0  0  0  0  0  0  0  0  0  0  0  0
    6.0167    8.4478   21.1089 C   0  0  0  0  0  0  0  0  0  0  0  0
   11.0002   10.8890   20.0262 C   0  0  0  0  0  0  0  0  0  0  0  0
    2.1721    7.7393   20.0315 O   0  0  0  0  0  0  0  0  0  0  0  0
    9.1107   10.3880   21.3769 N   0  0  0  0  0  0  0  0  0  0  0  0
    3.9102    9.2008   20.3124 C   0  0  0  0  0  0  0  0  0  0  0  0
   12.7292   10.9960   18.4597 C   0  0  0  0  0  0  0  0  0  0  0  0
    9.3798    6.6793   23.6625 C   0  0  0  0  0  0  0  0  0  0  0  0
   14.7425   10.0739   19.0802 O   0  0  0  0  0  0  0  0  0  0  0  0
    5.1894    9.4673   20.7118 C   0  0  0  0  0  0  0  0  0  0  0  0
    7.3773    8.8224   21.4870 C   0  0  0  0  0  0  0  0  0  0  0  0
    8.4391    6.6439   21.0235 C   0  0  0  0  0  0  0  0  0  0  0  0
    9.6494   11.1353   20.4167 C   0  0  0  0  0  0  0  0  0  0  0  0
    8.1431    7.6829   21.9046 C   0  0  0  0  0  0  0  0  0  0  0  0
    7.7796   10.1314   21.5115 N   0  0  0  0  0  0  0  0  0  0  0  0
    9.2768    5.6183   21.4437 C   0  0  0  0  0  0  0  0  0  0  0  0
    8.6315    7.7322   23.1768 C   0  0  0  0  0  0  0  0  0  0  0  0
   13.0537    9.9821   20.5781 C   0  0  0  0  0  0  0  0  0  0  0  0
   10.3850    4.6575   23.2386 O   0  0  0  0  0  0  0  0  0  0  0  0
    4.2069    6.8450   20.7994 C   0  0  0  0  0  0  0  0  0  0  0  0
    3.0726   10.1043   19.8522 O   0  0  0  0  0  0  0  0  0  0  0  0
    5.5057    7.1196   21.1155 C   0  0  0  0  0  0  0  0  0  0  0  0
    7.0367   11.0229   21.9948 O   0  0  0  0  0  0  0  0  0  0  0  0
  1  8  4  0
  1 12  4  0
  2  9  1  0
  2 11  4  0
  2 25  4  0
  3 12  4  0
  3 14  1  0
  3 23  4  0
  4 13  4  0
  4 21  4  0
  4 24  1  0
  5  8  4  0
  5 23  4  0
  6 18  2  0
  7 15  4  0
  7 16  1  0
  7 27  4  0
  8 18  1  0
 10 18  1  0
 10 20  1  0
 11 15  4  0
 11 26  1  0
 13 22  4  0
 16 19  1  0
 16 20  2  0
 17 19  4  0
 17 21  4  0
 19 22  4  0
 20 28  1  0
 25 27  4  0
M  END
$$$$

 Created by Python create_sdf_string function

 28 30  0  0  0  0  0  0  0  0999 V2000
   11.4592   11.2893   18.7941 C   0  0  0  0  0  0  0  0  0  0  0  0
    3.4202    7.9009   20.3866 C   0  0  0  0  0  0  0  0  0  0  0  0
   13.5280   10.3522   19.3586 C   0  0  0  0  0  0  0  0  0  0  0  0
    9.6923    5.6468   22.7891 C   0  0  0  0  0  0  0  0  0  0  0  0
   11.7756   10.2554   20.8841 N   0  0  0  0  0  0  0  0  0  0  0  0
    8.9876   11.9370   19.8757 O   0  0  0  0  0  0  0  0  0  0  0  0
    6.0167    8.4478   21.1089 C   0  0  0  0  0  0  0  0  0  0  0  0
   11.0002   10.8890   20.0262 C   0  0  0  0  0  0  0  0  0  0  0  0
    2.1721    7.7393   20.0315 O   0  0  0  0  0  0  0  0  0  0  0  0
    9.1107   10.3880   21.3769 N   0  0  0  0  0  0  0  0  0  0  0  0
    3.9102    9.2008   20.3124 C   0  0  0  0  0  0  0  0  0  0  0  0
   12.7292   10.9960   18.4597 C   0  0  0  0  0  0  0  0  0  0  0  0
    9.3798    6.6793   23.6625 C   0  0  0  0  0  0  0  0  0  0  0  0
   14.7425   10.0739   19.0802 O   0  0  0  0  0  0  0  0  0  0  0  0
    5.1894    9.4673   20.7118 C   0  0  0  0  0  0  0  0  0  0  0  0
    7.3773    8.8224   21.4870 C   0  0  0  0  0  0  0  0  0  0  0  0
    8.4391    6.6439   21.0235 C   0  0  0  0  0  0  0  0  0  0  0  0
    9.6494   11.1353   20.4167 C   0  0  0  0  0  0  0  0  0  0  0  0
    8.1431    7.6829   21.9046 C   0  0  0  0  0  0  0  0  0  0  0  0
    7.7796   10.1314   21.5115 N   0  0  0  0  0  0  0  0  0  0  0  0
    9.2768    5.6183   21.4437 C   0  0  0  0  0  0  0  0  0  0  0  0
    8.6315    7.7322   23.1768 C   0  0  0  0  0  0  0  0  0  0  0  0
   13.0537    9.9821   20.5781 C   0  0  0  0  0  0  0  0  0  0  0  0
   10.3850    4.6575   23.2386 O   0  0  0  0  0  0  0  0  0  0  0  0
    4.2069    6.8450   20.7994 C   0  0  0  0  0  0  0  0  0  0  0  0
    3.0726   10.1043   19.8522 O   0  0  0  0  0  0  0  0  0  0  0  0
    5.5057    7.1196   21.1155 C   0  0  0  0  0  0  0  0  0  0  0  0
    7.0367   11.0229   21.9948 O   0  0  0  0  0  0  0  0  0  0  0  0
  1  8  4  0
  1 12  4  0
  2  9  1  0
  2 11  4  0
  2 25  4  0
  3 12  4  0
  3 14  1  0
  3 23  4  0
  4 13  4  0
  4 21  4  0
  4 24  1  0
  5  8  4  0
  5 23  4  0
  6 18  2  0
  7 15  4  0
  7 16  1  0
  7 27  4  0
  8 18  1  0
 10 18  1  0
 10 20  1  0
 11 15  4  0
 11 26  1  0
 13 22  4  0
 16 19  1  0
 16 20  2  0
 17 19  4  0
 17 21  4  0
 19 22  4  0
 20 28  1  0
 25 27  4  0
M  END
$$$$

 Created by Python create_sdf_string function

 28 30  0  0  0  0  0  0  0  0999 V2000
   11.4592   11.2893   18.7941 C   0  0  0  0  0  0  0  0  0  0  0  0
    3.4202    7.9009   20.3866 C   0  0  0  0  0  0  0  0  0  0  0  0
   13.5280   10.3522   19.3586 C   0  0  0  0  0  0  0  0  0  0  0  0
    9.6923    5.6468   22.7891 C   0  0  0  0  0  0  0  0  0  0  0  0
   11.7756   10.2554   20.8841 N   0  0  0  0  0  0  0  0  0  0  0  0
    8.9876   11.9370   19.8757 O   0  0  0  0  0  0  0  0  0  0  0  0
    6.0167    8.4478   21.1089 C   0  0  0  0  0  0  0  0  0  0  0  0
   11.0002   10.8890   20.0262 C   0  0  0  0  0  0  0  0  0  0  0  0
    2.1721    7.7393   20.0315 O   0  0  0  0  0  0  0  0  0  0  0  0
    9.1107   10.3880   21.3769 N   0  0  0  0  0  0  0  0  0  0  0  0
    3.9102    9.2008   20.3124 C   0  0  0  0  0  0  0  0  0  0  0  0
   12.7292   10.9960   18.4597 C   0  0  0  0  0  0  0  0  0  0  0  0
    9.3798    6.6793   23.6625 C   0  0  0  0  0  0  0  0  0  0  0  0
   14.7425   10.0739   19.0802 O   0  0  0  0  0  0  0  0  0  0  0  0
    5.1894    9.4673   20.7118 C   0  0  0  0  0  0  0  0  0  0  0  0
    7.3773    8.8224   21.4870 C   0  0  0  0  0  0  0  0  0  0  0  0
    8.4391    6.6439   21.0235 C   0  0  0  0  0  0  0  0  0  0  0  0
    9.6494   11.1353   20.4167 C   0  0  0  0  0  0  0  0  0  0  0  0
    8.1431    7.6829   21.9046 C   0  0  0  0  0  0  0  0  0  0  0  0
    7.7796   10.1314   21.5115 N   0  0  0  0  0  0  0  0  0  0  0  0
    9.2768    5.6183   21.4437 C   0  0  0  0  0  0  0  0  0  0  0  0
    8.6315    7.7322   23.1768 C   0  0  0  0  0  0  0  0  0  0  0  0
   13.0537    9.9821   20.5781 C   0  0  0  0  0  0  0  0  0  0  0  0
   10.3850    4.6575   23.2386 O   0  0  0  0  0  0  0  0  0  0  0  0
    4.2069    6.8450   20.7994 C   0  0  0  0  0  0  0  0  0  0  0  0
    3.0726   10.1043   19.8522 O   0  0  0  0  0  0  0  0  0  0  0  0
    5.5057    7.1196   21.1155 C   0  0  0  0  0  0  0  0  0  0  0  0
    7.0367   11.0229   21.9948 O   0  0  0  0  0  0  0  0  0  0  0  0
  1  8  4  0
  1 12  4  0
  2  9  1  0
  2 11  4  0
  2 25  4  0
  3 12  4  0
  3 14  1  0
  3 23  4  0
  4 13  4  0
  4 21  4  0
  4 24  1  0
  5  8  4  0
  5 23  4  0
  6 18  2  0
  7 15  4  0
  7 16  1  0
  7 27  4  0
  8 18  1  0
 10 18  1  0
 10 20  1  0
 11 15  4  0
 11 26  1  0
 13 22  4  0
 16 19  1  0
 16 20  2  0
 17 19  4  0
 17 21  4  0
 19 22  4  0
 20 28  1  0
 25 27  4  0
M  END
$$$$

 Created by Python create_sdf_string function

 28 30  0  0  0  0  0  0  0  0999 V2000
   11.4592   11.2893   18.7941 C   0  0  0  0  0  0  0  0  0  0  0  0
    3.4202    7.9009   20.3866 C   0  0  0  0  0  0  0  0  0  0  0  0
   13.5280   10.3522   19.3586 C   0  0  0  0  0  0  0  0  0  0  0  0
    9.6923    5.6468   22.7891 C   0  0  0  0  0  0  0  0  0  0  0  0
   11.7756   10.2554   20.8841 N   0  0  0  0  0  0  0  0  0  0  0  0
    8.9876   11.9370   19.8757 O   0  0  0  0  0  0  0  0  0  0  0  0
    6.0167    8.4478   21.1089 C   0  0  0  0  0  0  0  0  0  0  0  0
   11.0002   10.8890   20.0262 C   0  0  0  0  0  0  0  0  0  0  0  0
    2.1721    7.7393   20.0315 O   0  0  0  0  0  0  0  0  0  0  0  0
    9.1107   10.3880   21.3769 N   0  0  0  0  0  0  0  0  0  0  0  0
    3.9102    9.2008   20.3124 C   0  0  0  0  0  0  0  0  0  0  0  0
   12.7292   10.9960   18.4597 C   0  0  0  0  0  0  0  0  0  0  0  0
    9.3798    6.6793   23.6625 C   0  0  0  0  0  0  0  0  0  0  0  0
   14.7425   10.0739   19.0802 O   0  0  0  0  0  0  0  0  0  0  0  0
    5.1894    9.4673   20.7118 C   0  0  0  0  0  0  0  0  0  0  0  0
    7.3773    8.8224   21.4870 C   0  0  0  0  0  0  0  0  0  0  0  0
    8.4391    6.6439   21.0235 C   0  0  0  0  0  0  0  0  0  0  0  0
    9.6494   11.1353   20.4167 C   0  0  0  0  0  0  0  0  0  0  0  0
    8.1431    7.6829   21.9046 C   0  0  0  0  0  0  0  0  0  0  0  0
    7.7796   10.1314   21.5115 N   0  0  0  0  0  0  0  0  0  0  0  0
    9.2768    5.6183   21.4437 C   0  0  0  0  0  0  0  0  0  0  0  0
    8.6315    7.7322   23.1768 C   0  0  0  0  0  0  0  0  0  0  0  0
   13.0537    9.9821   20.5781 C   0  0  0  0  0  0  0  0  0  0  0  0
   10.3850    4.6575   23.2386 O   0  0  0  0  0  0  0  0  0  0  0  0
    4.2069    6.8450   20.7994 C   0  0  0  0  0  0  0  0  0  0  0  0
    3.0726   10.1043   19.8522 O   0  0  0  0  0  0  0  0  0  0  0  0
    5.5057    7.1196   21.1155 C   0  0  0  0  0  0  0  0  0  0  0  0
    7.0367   11.0229   21.9948 O   0  0  0  0  0  0  0  0  0  0  0  0
  1  8  4  0
  1 12  4  0
  2  9  1  0
  2 11  4  0
  2 25  4  0
  3 12  4  0
  3 14  1  0
  3 23  4  0
  4 13  4  0
  4 21  4  0
  4 24  1  0
  5  8  4  0
  5 23  4  0
  6 18  2  0
  7 15  4  0
  7 16  1  0
  7 27  4  0
  8 18  1  0
 10 18  1  0
 10 20  1  0
 11 15  4  0
 11 26  1  0
 13 22  4  0
 16 19  1  0
 16 20  2  0
 17 19  4  0
 17 21  4  0
 19 22  4  0
 20 28  1  0
 25 27  4  0
M  END
$$$$

 Created by Python create_sdf_string function

 28 30  0  0  0  0  0  0  0  0999 V2000
   11.4592   11.2893   18.7941 C   0  0  0  0  0  0  0  0  0  0  0  0
    3.4202    7.9009   20.3866 C   0  0  0  0  0  0  0  0  0  0  0  0
   13.5280   10.3522   19.3586 C   0  0  0  0  0  0  0  0  0  0  0  0
    9.6923    5.6468   22.7891 C   0  0  0  0  0  0  0  0  0  0  0  0
   11.7756   10.2554   20.8841 N   0  0  0  0  0  0  0  0  0  0  0  0
    8.9876   11.9370   19.8757 O   0  0  0  0  0  0  0  0  0  0  0  0
    6.0167    8.4478   21.1089 C   0  0  0  0  0  0  0  0  0  0  0  0
   11.0002   10.8890   20.0262 C   0  0  0  0  0  0  0  0  0  0  0  0
    2.1721    7.7393   20.0315 O   0  0  0  0  0  0  0  0  0  0  0  0
    9.1107   10.3880   21.3769 N   0  0  0  0  0  0  0  0  0  0  0  0
    3.9102    9.2008   20.3124 C   0  0  0  0  0  0  0  0  0  0  0  0
   12.7292   10.9960   18.4597 C   0  0  0  0  0  0  0  0  0  0  0  0
    9.3798    6.6793   23.6625 C   0  0  0  0  0  0  0  0  0  0  0  0
   14.7425   10.0739   19.0802 O   0  0  0  0  0  0  0  0  0  0  0  0
    5.1894    9.4673   20.7118 C   0  0  0  0  0  0  0  0  0  0  0  0
    7.3773    8.8224   21.4870 C   0  0  0  0  0  0  0  0  0  0  0  0
    8.4391    6.6439   21.0235 C   0  0  0  0  0  0  0  0  0  0  0  0
    9.6494   11.1353   20.4167 C   0  0  0  0  0  0  0  0  0  0  0  0
    8.1431    7.6829   21.9046 C   0  0  0  0  0  0  0  0  0  0  0  0
    7.7796   10.1314   21.5115 N   0  0  0  0  0  0  0  0  0  0  0  0
    9.2768    5.6183   21.4437 C   0  0  0  0  0  0  0  0  0  0  0  0
    8.6315    7.7322   23.1768 C   0  0  0  0  0  0  0  0  0  0  0  0
   13.0537    9.9821   20.5781 C   0  0  0  0  0  0  0  0  0  0  0  0
   10.3850    4.6575   23.2386 O   0  0  0  0  0  0  0  0  0  0  0  0
    4.2069    6.8450   20.7994 C   0  0  0  0  0  0  0  0  0  0  0  0
    3.0726   10.1043   19.8522 O   0  0  0  0  0  0  0  0  0  0  0  0
    5.5057    7.1196   21.1155 C   0  0  0  0  0  0  0  0  0  0  0  0
    7.0367   11.0229   21.9948 O   0  0  0  0  0  0  0  0  0  0  0  0
  1  8  4  0
  1 12  4  0
  2  9  1  0
  2 11  4  0
  2 25  4  0
  3 12  4  0
  3 14  1  0
  3 23  4  0
  4 13  4  0
  4 21  4  0
  4 24  1  0
  5  8  4  0
  5 23  4  0
  6 18  2  0
  7 15  4  0
  7 16  1  0
  7 27  4  0
  8 18  1  0
 10 18  1  0
 10 20  1  0
 11 15  4  0
 11 26  1  0
 13 22  4  0
 16 19  1  0
 16 20  2  0
 17 19  4  0
 17 21  4  0
 19 22  4  0
 20 28  1  0
 25 27  4  0
M  END
$$$$

 Created by Python create_sdf_string function

 28 30  0  0  0  0  0  0  0  0999 V2000
   11.4592   11.2893   18.7941 C   0  0  0  0  0  0  0  0  0  0  0  0
    3.4202    7.9009   20.3866 C   0  0  0  0  0  0  0  0  0  0  0  0
   13.5280   10.3522   19.3586 C   0  0  0  0  0  0  0  0  0  0  0  0
    9.6923    5.6468   22.7891 C   0  0  0  0  0  0  0  0  0  0  0  0
   11.7756   10.2554   20.8841 N   0  0  0  0  0  0  0  0  0  0  0  0
    8.9876   11.9370   19.8757 O   0  0  0  0  0  0  0  0  0  0  0  0
    6.0167    8.4478   21.1089 C   0  0  0  0  0  0  0  0  0  0  0  0
   11.0002   10.8890   20.0262 C   0  0  0  0  0  0  0  0  0  0  0  0
    2.1721    7.7393   20.0315 O   0  0  0  0  0  0  0  0  0  0  0  0
    9.1107   10.3880   21.3769 N   0  0  0  0  0  0  0  0  0  0  0  0
    3.9102    9.2008   20.3124 C   0  0  0  0  0  0  0  0  0  0  0  0
   12.7292   10.9960   18.4597 C   0  0  0  0  0  0  0  0  0  0  0  0
    9.3798    6.6793   23.6625 C   0  0  0  0  0  0  0  0  0  0  0  0
   14.7425   10.0739   19.0802 O   0  0  0  0  0  0  0  0  0  0  0  0
    5.1894    9.4673   20.7118 C   0  0  0  0  0  0  0  0  0  0  0  0
    7.3773    8.8224   21.4870 C   0  0  0  0  0  0  0  0  0  0  0  0
    8.4391    6.6439   21.0235 C   0  0  0  0  0  0  0  0  0  0  0  0
    9.6494   11.1353   20.4167 C   0  0  0  0  0  0  0  0  0  0  0  0
    8.1431    7.6829   21.9046 C   0  0  0  0  0  0  0  0  0  0  0  0
    7.7796   10.1314   21.5115 N   0  0  0  0  0  0  0  0  0  0  0  0
    9.2768    5.6183   21.4437 C   0  0  0  0  0  0  0  0  0  0  0  0
    8.6315    7.7322   23.1768 C   0  0  0  0  0  0  0  0  0  0  0  0
   13.0537    9.9821   20.5781 C   0  0  0  0  0  0  0  0  0  0  0  0
   10.3850    4.6575   23.2386 O   0  0  0  0  0  0  0  0  0  0  0  0
    4.2069    6.8450   20.7994 C   0  0  0  0  0  0  0  0  0  0  0  0
    3.0726   10.1043   19.8522 O   0  0  0  0  0  0  0  0  0  0  0  0
    5.5057    7.1196   21.1155 C   0  0  0  0  0  0  0  0  0  0  0  0
    7.0367   11.0229   21.9948 O   0  0  0  0  0  0  0  0  0  0  0  0
  1  8  4  0
  1 12  4  0
  2  9  1  0
  2 11  4  0
  2 25  4  0
  3 12  4  0
  3 14  1  0
  3 23  4  0
  4 13  4  0
  4 21  4  0
  4 24  1  0
  5  8  4  0
  5 23  4  0
  6 18  2  0
  7 15  4  0
  7 16  1  0
  7 27  4  0
  8 18  1  0
 10 18  1  0
 10 20  1  0
 11 15  4  0
 11 26  1  0
 13 22  4  0
 16 19  1  0
 16 20  2  0
 17 19  4  0
 17 21  4  0
 19 22  4  0
 20 28  1  0
 25 27  4  0
M  END
$$$$

 Created by Python create_sdf_string function

 28 30  0  0  0  0  0  0  0  0999 V2000
   11.4592   11.2893   18.7941 C   0  0  0  0  0  0  0  0  0  0  0  0
    3.4202    7.9009   20.3866 C   0  0  0  0  0  0  0  0  0  0  0  0
   13.5280   10.3522   19.3586 C   0  0  0  0  0  0  0  0  0  0  0  0
    9.6923    5.6468   22.7891 C   0  0  0  0  0  0  0  0  0  0  0  0
   11.7756   10.2554   20.8841 N   0  0  0  0  0  0  0  0  0  0  0  0
    8.9876   11.9370   19.8757 O   0  0  0  0  0  0  0  0  0  0  0  0
    6.0167    8.4478   21.1089 C   0  0  0  0  0  0  0  0  0  0  0  0
   11.0002   10.8890   20.0262 C   0  0  0  0  0  0  0  0  0  0  0  0
    2.1721    7.7393   20.0315 O   0  0  0  0  0  0  0  0  0  0  0  0
    9.1107   10.3880   21.3769 N   0  0  0  0  0  0  0  0  0  0  0  0
    3.9102    9.2008   20.3124 C   0  0  0  0  0  0  0  0  0  0  0  0
   12.7292   10.9960   18.4597 C   0  0  0  0  0  0  0  0  0  0  0  0
    9.3798    6.6793   23.6625 C   0  0  0  0  0  0  0  0  0  0  0  0
   14.7425   10.0739   19.0802 O   0  0  0  0  0  0  0  0  0  0  0  0
    5.1894    9.4673   20.7118 C   0  0  0  0  0  0  0  0  0  0  0  0
    7.3773    8.8224   21.4870 C   0  0  0  0  0  0  0  0  0  0  0  0
    8.4391    6.6439   21.0235 C   0  0  0  0  0  0  0  0  0  0  0  0
    9.6494   11.1353   20.4167 C   0  0  0  0  0  0  0  0  0  0  0  0
    8.1431    7.6829   21.9046 C   0  0  0  0  0  0  0  0  0  0  0  0
    7.7796   10.1314   21.5115 N   0  0  0  0  0  0  0  0  0  0  0  0
    9.2768    5.6183   21.4437 C   0  0  0  0  0  0  0  0  0  0  0  0
    8.6315    7.7322   23.1768 C   0  0  0  0  0  0  0  0  0  0  0  0
   13.0537    9.9821   20.5781 C   0  0  0  0  0  0  0  0  0  0  0  0
   10.3850    4.6575   23.2386 O   0  0  0  0  0  0  0  0  0  0  0  0
    4.2069    6.8450   20.7994 C   0  0  0  0  0  0  0  0  0  0  0  0
    3.0726   10.1043   19.8522 O   0  0  0  0  0  0  0  0  0  0  0  0
    5.5057    7.1196   21.1155 C   0  0  0  0  0  0  0  0  0  0  0  0
    7.0367   11.0229   21.9948 O   0  0  0  0  0  0  0  0  0  0  0  0
  1  8  4  0
  1 12  4  0
  2  9  1  0
  2 11  4  0
  2 25  4  0
  3 12  4  0
  3 14  1  0
  3 23  4  0
  4 13  4  0
  4 21  4  0
  4 24  1  0
  5  8  4  0
  5 23  4  0
  6 18  2  0
  7 15  4  0
  7 16  1  0
  7 27  4  0
  8 18  1  0
 10 18  1  0
 10 20  1  0
 11 15  4  0
 11 26  1  0
 13 22  4  0
 16 19  1  0
 16 20  2  0
 17 19  4  0
 17 21  4  0
 19 22  4  0
 20 28  1  0
 25 27  4  0
M  END
$$$$

 Created by Python create_sdf_string function

 28 30  0  0  0  0  0  0  0  0999 V2000
   11.4592   11.2893   18.7941 C   0  0  0  0  0  0  0  0  0  0  0  0
    3.4202    7.9009   20.3866 C   0  0  0  0  0  0  0  0  0  0  0  0
   13.5280   10.3522   19.3586 C   0  0  0  0  0  0  0  0  0  0  0  0
    9.6923    5.6468   22.7891 C   0  0  0  0  0  0  0  0  0  0  0  0
   11.7756   10.2554   20.8841 N   0  0  0  0  0  0  0  0  0  0  0  0
    8.9876   11.9370   19.8757 O   0  0  0  0  0  0  0  0  0  0  0  0
    6.0167    8.4478   21.1089 C   0  0  0  0  0  0  0  0  0  0  0  0
   11.0002   10.8890   20.0262 C   0  0  0  0  0  0  0  0  0  0  0  0
    2.1721    7.7393   20.0315 O   0  0  0  0  0  0  0  0  0  0  0  0
    9.1107   10.3880   21.3769 N   0  0  0  0  0  0  0  0  0  0  0  0
    3.9102    9.2008   20.3124 C   0  0  0  0  0  0  0  0  0  0  0  0
   12.7292   10.9960   18.4597 C   0  0  0  0  0  0  0  0  0  0  0  0
    9.3798    6.6793   23.6625 C   0  0  0  0  0  0  0  0  0  0  0  0
   14.7425   10.0739   19.0802 O   0  0  0  0  0  0  0  0  0  0  0  0
    5.1894    9.4673   20.7118 C   0  0  0  0  0  0  0  0  0  0  0  0
    7.3773    8.8224   21.4870 C   0  0  0  0  0  0  0  0  0  0  0  0
    8.4391    6.6439   21.0235 C   0  0  0  0  0  0  0  0  0  0  0  0
    9.6494   11.1353   20.4167 C   0  0  0  0  0  0  0  0  0  0  0  0
    8.1431    7.6829   21.9046 C   0  0  0  0  0  0  0  0  0  0  0  0
    7.7796   10.1314   21.5115 N   0  0  0  0  0  0  0  0  0  0  0  0
    9.2768    5.6183   21.4437 C   0  0  0  0  0  0  0  0  0  0  0  0
    8.6315    7.7322   23.1768 C   0  0  0  0  0  0  0  0  0  0  0  0
   13.0537    9.9821   20.5781 C   0  0  0  0  0  0  0  0  0  0  0  0
   10.3850    4.6575   23.2386 O   0  0  0  0  0  0  0  0  0  0  0  0
    4.2069    6.8450   20.7994 C   0  0  0  0  0  0  0  0  0  0  0  0
    3.0726   10.1043   19.8522 O   0  0  0  0  0  0  0  0  0  0  0  0
    5.5057    7.1196   21.1155 C   0  0  0  0  0  0  0  0  0  0  0  0
    7.0367   11.0229   21.9948 O   0  0  0  0  0  0  0  0  0  0  0  0
  1  8  4  0
  1 12  4  0
  2  9  1  0
  2 11  4  0
  2 25  4  0
  3 12  4  0
  3 14  1  0
  3 23  4  0
  4 13  4  0
  4 21  4  0
  4 24  1  0
  5  8  4  0
  5 23  4  0
  6 18  2  0
  7 15  4  0
  7 16  1  0
  7 27  4  0
  8 18  1  0
 10 18  1  0
 10 20  1  0
 11 15  4  0
 11 26  1  0
 13 22  4  0
 16 19  1  0
 16 20  2  0
 17 19  4  0
 17 21  4  0
 19 22  4  0
 20 28  1  0
 25 27  4  0
M  END
$$$$

 Created by Python create_sdf_string function

 28 30  0  0  0  0  0  0  0  0999 V2000
   11.4592   11.2893   18.7941 C   0  0  0  0  0  0  0  0  0  0  0  0
    3.4202    7.9009   20.3866 C   0  0  0  0  0  0  0  0  0  0  0  0
   13.5280   10.3522   19.3586 C   0  0  0  0  0  0  0  0  0  0  0  0
    9.6923    5.6468   22.7891 C   0  0  0  0  0  0  0  0  0  0  0  0
   11.7756   10.2554   20.8841 N   0  0  0  0  0  0  0  0  0  0  0  0
    8.9876   11.9370   19.8757 O   0  0  0  0  0  0  0  0  0  0  0  0
    6.0167    8.4478   21.1089 C   0  0  0  0  0  0  0  0  0  0  0  0
   11.0002   10.8890   20.0262 C   0  0  0  0  0  0  0  0  0  0  0  0
    2.1721    7.7393   20.0315 O   0  0  0  0  0  0  0  0  0  0  0  0
    9.1107   10.3880   21.3769 N   0  0  0  0  0  0  0  0  0  0  0  0
    3.9102    9.2008   20.3124 C   0  0  0  0  0  0  0  0  0  0  0  0
   12.7292   10.9960   18.4597 C   0  0  0  0  0  0  0  0  0  0  0  0
    9.3798    6.6793   23.6625 C   0  0  0  0  0  0  0  0  0  0  0  0
   14.7425   10.0739   19.0802 O   0  0  0  0  0  0  0  0  0  0  0  0
    5.1894    9.4673   20.7118 C   0  0  0  0  0  0  0  0  0  0  0  0
    7.3773    8.8224   21.4870 C   0  0  0  0  0  0  0  0  0  0  0  0
    8.4391    6.6439   21.0235 C   0  0  0  0  0  0  0  0  0  0  0  0
    9.6494   11.1353   20.4167 C   0  0  0  0  0  0  0  0  0  0  0  0
    8.1431    7.6829   21.9046 C   0  0  0  0  0  0  0  0  0  0  0  0
    7.7796   10.1314   21.5115 N   0  0  0  0  0  0  0  0  0  0  0  0
    9.2768    5.6183   21.4437 C   0  0  0  0  0  0  0  0  0  0  0  0
    8.6315    7.7322   23.1768 C   0  0  0  0  0  0  0  0  0  0  0  0
   13.0537    9.9821   20.5781 C   0  0  0  0  0  0  0  0  0  0  0  0
   10.3850    4.6575   23.2386 O   0  0  0  0  0  0  0  0  0  0  0  0
    4.2069    6.8450   20.7994 C   0  0  0  0  0  0  0  0  0  0  0  0
    3.0726   10.1043   19.8522 O   0  0  0  0  0  0  0  0  0  0  0  0
    5.5057    7.1196   21.1155 C   0  0  0  0  0  0  0  0  0  0  0  0
    7.0367   11.0229   21.9948 O   0  0  0  0  0  0  0  0  0  0  0  0
  1  8  4  0
  1 12  4  0
  2  9  1  0
  2 11  4  0
  2 25  4  0
  3 12  4  0
  3 14  1  0
  3 23  4  0
  4 13  4  0
  4 21  4  0
  4 24  1  0
  5  8  4  0
  5 23  4  0
  6 18  2  0
  7 15  4  0
  7 16  1  0
  7 27  4  0
  8 18  1  0
 10 18  1  0
 10 20  1  0
 11 15  4  0
 11 26  1  0
 13 22  4  0
 16 19  1  0
 16 20  2  0
 17 19  4  0
 17 21  4  0
 19 22  4  0
 20 28  1  0
 25 27  4  0
M  END
$$$$

 Created by Python create_sdf_string function

 28 30  0  0  0  0  0  0  0  0999 V2000
   11.4592   11.2893   18.7941 C   0  0  0  0  0  0  0  0  0  0  0  0
    3.4202    7.9009   20.3866 C   0  0  0  0  0  0  0  0  0  0  0  0
   13.5280   10.3522   19.3586 C   0  0  0  0  0  0  0  0  0  0  0  0
    9.6923    5.6468   22.7891 C   0  0  0  0  0  0  0  0  0  0  0  0
   11.7756   10.2554   20.8841 N   0  0  0  0  0  0  0  0  0  0  0  0
    8.9876   11.9370   19.8757 O   0  0  0  0  0  0  0  0  0  0  0  0
    6.0167    8.4478   21.1089 C   0  0  0  0  0  0  0  0  0  0  0  0
   11.0002   10.8890   20.0262 C   0  0  0  0  0  0  0  0  0  0  0  0
    2.1721    7.7393   20.0315 O   0  0  0  0  0  0  0  0  0  0  0  0
    9.1107   10.3880   21.3769 N   0  0  0  0  0  0  0  0  0  0  0  0
    3.9102    9.2008   20.3124 C   0  0  0  0  0  0  0  0  0  0  0  0
   12.7292   10.9960   18.4597 C   0  0  0  0  0  0  0  0  0  0  0  0
    9.3798    6.6793   23.6625 C   0  0  0  0  0  0  0  0  0  0  0  0
   14.7425   10.0739   19.0802 O   0  0  0  0  0  0  0  0  0  0  0  0
    5.1894    9.4673   20.7118 C   0  0  0  0  0  0  0  0  0  0  0  0
    7.3773    8.8224   21.4870 C   0  0  0  0  0  0  0  0  0  0  0  0
    8.4391    6.6439   21.0235 C   0  0  0  0  0  0  0  0  0  0  0  0
    9.6494   11.1353   20.4167 C   0  0  0  0  0  0  0  0  0  0  0  0
    8.1431    7.6829   21.9046 C   0  0  0  0  0  0  0  0  0  0  0  0
    7.7796   10.1314   21.5115 N   0  0  0  0  0  0  0  0  0  0  0  0
    9.2768    5.6183   21.4437 C   0  0  0  0  0  0  0  0  0  0  0  0
    8.6315    7.7322   23.1768 C   0  0  0  0  0  0  0  0  0  0  0  0
   13.0537    9.9821   20.5781 C   0  0  0  0  0  0  0  0  0  0  0  0
   10.3850    4.6575   23.2386 O   0  0  0  0  0  0  0  0  0  0  0  0
    4.2069    6.8450   20.7994 C   0  0  0  0  0  0  0  0  0  0  0  0
    3.0726   10.1043   19.8522 O   0  0  0  0  0  0  0  0  0  0  0  0
    5.5057    7.1196   21.1155 C   0  0  0  0  0  0  0  0  0  0  0  0
    7.0367   11.0229   21.9948 O   0  0  0  0  0  0  0  0  0  0  0  0
  1  8  4  0
  1 12  4  0
  2  9  1  0
  2 11  4  0
  2 25  4  0
  3 12  4  0
  3 14  1  0
  3 23  4  0
  4 13  4  0
  4 21  4  0
  4 24  1  0
  5  8  4  0
  5 23  4  0
  6 18  2  0
  7 15  4  0
  7 16  1  0
  7 27  4  0
  8 18  1  0
 10 18  1  0
 10 20  1  0
 11 15  4  0
 11 26  1  0
 13 22  4  0
 16 19  1  0
 16 20  2  0
 17 19  4  0
 17 21  4  0
 19 22  4  0
 20 28  1  0
 25 27  4  0
M  END
$$$$

 Created by Python create_sdf_string function

 28 30  0  0  0  0  0  0  0  0999 V2000
   11.4592   11.2893   18.7941 C   0  0  0  0  0  0  0  0  0  0  0  0
    3.4202    7.9009   20.3866 C   0  0  0  0  0  0  0  0  0  0  0  0
   13.5280   10.3522   19.3586 C   0  0  0  0  0  0  0  0  0  0  0  0
    9.6923    5.6468   22.7891 C   0  0  0  0  0  0  0  0  0  0  0  0
   11.7756   10.2554   20.8841 N   0  0  0  0  0  0  0  0  0  0  0  0
    8.9876   11.9370   19.8757 O   0  0  0  0  0  0  0  0  0  0  0  0
    6.0167    8.4478   21.1089 C   0  0  0  0  0  0  0  0  0  0  0  0
   11.0002   10.8890   20.0262 C   0  0  0  0  0  0  0  0  0  0  0  0
    2.1721    7.7393   20.0315 O   0  0  0  0  0  0  0  0  0  0  0  0
    9.1107   10.3880   21.3769 N   0  0  0  0  0  0  0  0  0  0  0  0
    3.9102    9.2008   20.3124 C   0  0  0  0  0  0  0  0  0  0  0  0
   12.7292   10.9960   18.4597 C   0  0  0  0  0  0  0  0  0  0  0  0
    9.3798    6.6793   23.6625 C   0  0  0  0  0  0  0  0  0  0  0  0
   14.7425   10.0739   19.0802 O   0  0  0  0  0  0  0  0  0  0  0  0
    5.1894    9.4673   20.7118 C   0  0  0  0  0  0  0  0  0  0  0  0
    7.3773    8.8224   21.4870 C   0  0  0  0  0  0  0  0  0  0  0  0
    8.4391    6.6439   21.0235 C   0  0  0  0  0  0  0  0  0  0  0  0
    9.6494   11.1353   20.4167 C   0  0  0  0  0  0  0  0  0  0  0  0
    8.1431    7.6829   21.9046 C   0  0  0  0  0  0  0  0  0  0  0  0
    7.7796   10.1314   21.5115 N   0  0  0  0  0  0  0  0  0  0  0  0
    9.2768    5.6183   21.4437 C   0  0  0  0  0  0  0  0  0  0  0  0
    8.6315    7.7322   23.1768 C   0  0  0  0  0  0  0  0  0  0  0  0
   13.0537    9.9821   20.5781 C   0  0  0  0  0  0  0  0  0  0  0  0
   10.3850    4.6575   23.2386 O   0  0  0  0  0  0  0  0  0  0  0  0
    4.2069    6.8450   20.7994 C   0  0  0  0  0  0  0  0  0  0  0  0
    3.0726   10.1043   19.8522 O   0  0  0  0  0  0  0  0  0  0  0  0
    5.5057    7.1196   21.1155 C   0  0  0  0  0  0  0  0  0  0  0  0
    7.0367   11.0229   21.9948 O   0  0  0  0  0  0  0  0  0  0  0  0
  1  8  4  0
  1 12  4  0
  2  9  1  0
  2 11  4  0
  2 25  4  0
  3 12  4  0
  3 14  1  0
  3 23  4  0
  4 13  4  0
  4 21  4  0
  4 24  1  0
  5  8  4  0
  5 23  4  0
  6 18  2  0
  7 15  4  0
  7 16  1  0
  7 27  4  0
  8 18  1  0
 10 18  1  0
 10 20  1  0
 11 15  4  0
 11 26  1  0
 13 22  4  0
 16 19  1  0
 16 20  2  0
 17 19  4  0
 17 21  4  0
 19 22  4  0
 20 28  1  0
 25 27  4  0
M  END
$$$$

 Created by Python create_sdf_string function

 28 30  0  0  0  0  0  0  0  0999 V2000
   11.4592   11.2893   18.7941 C   0  0  0  0  0  0  0  0  0  0  0  0
    3.4202    7.9009   20.3866 C   0  0  0  0  0  0  0  0  0  0  0  0
   13.5280   10.3522   19.3586 C   0  0  0  0  0  0  0  0  0  0  0  0
    9.6923    5.6468   22.7891 C   0  0  0  0  0  0  0  0  0  0  0  0
   11.7756   10.2554   20.8841 N   0  0  0  0  0  0  0  0  0  0  0  0
    8.9876   11.9370   19.8757 O   0  0  0  0  0  0  0  0  0  0  0  0
    6.0167    8.4478   21.1089 C   0  0  0  0  0  0  0  0  0  0  0  0
   11.0002   10.8890   20.0262 C   0  0  0  0  0  0  0  0  0  0  0  0
    2.1721    7.7393   20.0315 O   0  0  0  0  0  0  0  0  0  0  0  0
    9.1107   10.3880   21.3769 N   0  0  0  0  0  0  0  0  0  0  0  0
    3.9102    9.2008   20.3124 C   0  0  0  0  0  0  0  0  0  0  0  0
   12.7292   10.9960   18.4597 C   0  0  0  0  0  0  0  0  0  0  0  0
    9.3798    6.6793   23.6625 C   0  0  0  0  0  0  0  0  0  0  0  0
   14.7425   10.0739   19.0802 O   0  0  0  0  0  0  0  0  0  0  0  0
    5.1894    9.4673   20.7118 C   0  0  0  0  0  0  0  0  0  0  0  0
    7.3773    8.8224   21.4870 C   0  0  0  0  0  0  0  0  0  0  0  0
    8.4391    6.6439   21.0235 C   0  0  0  0  0  0  0  0  0  0  0  0
    9.6494   11.1353   20.4167 C   0  0  0  0  0  0  0  0  0  0  0  0
    8.1431    7.6829   21.9046 C   0  0  0  0  0  0  0  0  0  0  0  0
    7.7796   10.1314   21.5115 N   0  0  0  0  0  0  0  0  0  0  0  0
    9.2768    5.6183   21.4437 C   0  0  0  0  0  0  0  0  0  0  0  0
    8.6315    7.7322   23.1768 C   0  0  0  0  0  0  0  0  0  0  0  0
   13.0537    9.9821   20.5781 C   0  0  0  0  0  0  0  0  0  0  0  0
   10.3850    4.6575   23.2386 O   0  0  0  0  0  0  0  0  0  0  0  0
    4.2069    6.8450   20.7994 C   0  0  0  0  0  0  0  0  0  0  0  0
    3.0726   10.1043   19.8522 O   0  0  0  0  0  0  0  0  0  0  0  0
    5.5057    7.1196   21.1155 C   0  0  0  0  0  0  0  0  0  0  0  0
    7.0367   11.0229   21.9948 O   0  0  0  0  0  0  0  0  0  0  0  0
  1  8  4  0
  1 12  4  0
  2  9  1  0
  2 11  4  0
  2 25  4  0
  3 12  4  0
  3 14  1  0
  3 23  4  0
  4 13  4  0
  4 21  4  0
  4 24  1  0
  5  8  4  0
  5 23  4  0
  6 18  2  0
  7 15  4  0
  7 16  1  0
  7 27  4  0
  8 18  1  0
 10 18  1  0
 10 20  1  0
 11 15  4  0
 11 26  1  0
 13 22  4  0
 16 19  1  0
 16 20  2  0
 17 19  4  0
 17 21  4  0
 19 22  4  0
 20 28  1  0
 25 27  4  0
M  END
$$$$

 Created by Python create_sdf_string function

 28 30  0  0  0  0  0  0  0  0999 V2000
   11.4592   11.2893   18.7941 C   0  0  0  0  0  0  0  0  0  0  0  0
    3.4202    7.9009   20.3866 C   0  0  0  0  0  0  0  0  0  0  0  0
   13.5280   10.3522   19.3586 C   0  0  0  0  0  0  0  0  0  0  0  0
    9.6923    5.6468   22.7891 C   0  0  0  0  0  0  0  0  0  0  0  0
   11.7756   10.2554   20.8841 N   0  0  0  0  0  0  0  0  0  0  0  0
    8.9876   11.9370   19.8757 O   0  0  0  0  0  0  0  0  0  0  0  0
    6.0167    8.4478   21.1089 C   0  0  0  0  0  0  0  0  0  0  0  0
   11.0002   10.8890   20.0262 C   0  0  0  0  0  0  0  0  0  0  0  0
    2.1721    7.7393   20.0315 O   0  0  0  0  0  0  0  0  0  0  0  0
    9.1107   10.3880   21.3769 N   0  0  0  0  0  0  0  0  0  0  0  0
    3.9102    9.2008   20.3124 C   0  0  0  0  0  0  0  0  0  0  0  0
   12.7292   10.9960   18.4597 C   0  0  0  0  0  0  0  0  0  0  0  0
    9.3798    6.6793   23.6625 C   0  0  0  0  0  0  0  0  0  0  0  0
   14.7425   10.0739   19.0802 O   0  0  0  0  0  0  0  0  0  0  0  0
    5.1894    9.4673   20.7118 C   0  0  0  0  0  0  0  0  0  0  0  0
    7.3773    8.8224   21.4870 C   0  0  0  0  0  0  0  0  0  0  0  0
    8.4391    6.6439   21.0235 C   0  0  0  0  0  0  0  0  0  0  0  0
    9.6494   11.1353   20.4167 C   0  0  0  0  0  0  0  0  0  0  0  0
    8.1431    7.6829   21.9046 C   0  0  0  0  0  0  0  0  0  0  0  0
    7.7796   10.1314   21.5115 N   0  0  0  0  0  0  0  0  0  0  0  0
    9.2768    5.6183   21.4437 C   0  0  0  0  0  0  0  0  0  0  0  0
    8.6315    7.7322   23.1768 C   0  0  0  0  0  0  0  0  0  0  0  0
   13.0537    9.9821   20.5781 C   0  0  0  0  0  0  0  0  0  0  0  0
   10.3850    4.6575   23.2386 O   0  0  0  0  0  0  0  0  0  0  0  0
    4.2069    6.8450   20.7994 C   0  0  0  0  0  0  0  0  0  0  0  0
    3.0726   10.1043   19.8522 O   0  0  0  0  0  0  0  0  0  0  0  0
    5.5057    7.1196   21.1155 C   0  0  0  0  0  0  0  0  0  0  0  0
    7.0367   11.0229   21.9948 O   0  0  0  0  0  0  0  0  0  0  0  0
  1  8  4  0
  1 12  4  0
  2  9  1  0
  2 11  4  0
  2 25  4  0
  3 12  4  0
  3 14  1  0
  3 23  4  0
  4 13  4  0
  4 21  4  0
  4 24  1  0
  5  8  4  0
  5 23  4  0
  6 18  2  0
  7 15  4  0
  7 16  1  0
  7 27  4  0
  8 18  1  0
 10 18  1  0
 10 20  1  0
 11 15  4  0
 11 26  1  0
 13 22  4  0
 16 19  1  0
 16 20  2  0
 17 19  4  0
 17 21  4  0
 19 22  4  0
 20 28  1  0
 25 27  4  0
M  END
$$$$

 Created by Python create_sdf_string function

 28 30  0  0  0  0  0  0  0  0999 V2000
   11.4592   11.2893   18.7941 C   0  0  0  0  0  0  0  0  0  0  0  0
    3.4202    7.9009   20.3866 C   0  0  0  0  0  0  0  0  0  0  0  0
   13.5280   10.3522   19.3586 C   0  0  0  0  0  0  0  0  0  0  0  0
    9.6923    5.6468   22.7891 C   0  0  0  0  0  0  0  0  0  0  0  0
   11.7756   10.2554   20.8841 N   0  0  0  0  0  0  0  0  0  0  0  0
    8.9876   11.9370   19.8757 O   0  0  0  0  0  0  0  0  0  0  0  0
    6.0167    8.4478   21.1089 C   0  0  0  0  0  0  0  0  0  0  0  0
   11.0002   10.8890   20.0262 C   0  0  0  0  0  0  0  0  0  0  0  0
    2.1721    7.7393   20.0315 O   0  0  0  0  0  0  0  0  0  0  0  0
    9.1107   10.3880   21.3769 N   0  0  0  0  0  0  0  0  0  0  0  0
    3.9102    9.2008   20.3124 C   0  0  0  0  0  0  0  0  0  0  0  0
   12.7292   10.9960   18.4597 C   0  0  0  0  0  0  0  0  0  0  0  0
    9.3798    6.6793   23.6625 C   0  0  0  0  0  0  0  0  0  0  0  0
   14.7425   10.0739   19.0802 O   0  0  0  0  0  0  0  0  0  0  0  0
    5.1894    9.4673   20.7118 C   0  0  0  0  0  0  0  0  0  0  0  0
    7.3773    8.8224   21.4870 C   0  0  0  0  0  0  0  0  0  0  0  0
    8.4391    6.6439   21.0235 C   0  0  0  0  0  0  0  0  0  0  0  0
    9.6494   11.1353   20.4167 C   0  0  0  0  0  0  0  0  0  0  0  0
    8.1431    7.6829   21.9046 C   0  0  0  0  0  0  0  0  0  0  0  0
    7.7796   10.1314   21.5115 N   0  0  0  0  0  0  0  0  0  0  0  0
    9.2768    5.6183   21.4437 C   0  0  0  0  0  0  0  0  0  0  0  0
    8.6315    7.7322   23.1768 C   0  0  0  0  0  0  0  0  0  0  0  0
   13.0537    9.9821   20.5781 C   0  0  0  0  0  0  0  0  0  0  0  0
   10.3850    4.6575   23.2386 O   0  0  0  0  0  0  0  0  0  0  0  0
    4.2069    6.8450   20.7994 C   0  0  0  0  0  0  0  0  0  0  0  0
    3.0726   10.1043   19.8522 O   0  0  0  0  0  0  0  0  0  0  0  0
    5.5057    7.1196   21.1155 C   0  0  0  0  0  0  0  0  0  0  0  0
    7.0367   11.0229   21.9948 O   0  0  0  0  0  0  0  0  0  0  0  0
  1  8  4  0
  1 12  4  0
  2  9  1  0
  2 11  4  0
  2 25  4  0
  3 12  4  0
  3 14  1  0
  3 23  4  0
  4 13  4  0
  4 21  4  0
  4 24  1  0
  5  8  4  0
  5 23  4  0
  6 18  2  0
  7 15  4  0
  7 16  1  0
  7 27  4  0
  8 18  1  0
 10 18  1  0
 10 20  1  0
 11 15  4  0
 11 26  1  0
 13 22  4  0
 16 19  1  0
 16 20  2  0
 17 19  4  0
 17 21  4  0
 19 22  4  0
 20 28  1  0
 25 27  4  0
M  END
$$$$

 Created by Python create_sdf_string function

 28 30  0  0  0  0  0  0  0  0999 V2000
   11.4592   11.2893   18.7941 C   0  0  0  0  0  0  0  0  0  0  0  0
    3.4202    7.9009   20.3866 C   0  0  0  0  0  0  0  0  0  0  0  0
   13.5280   10.3522   19.3586 C   0  0  0  0  0  0  0  0  0  0  0  0
    9.6923    5.6468   22.7891 C   0  0  0  0  0  0  0  0  0  0  0  0
   11.7756   10.2554   20.8841 N   0  0  0  0  0  0  0  0  0  0  0  0
    8.9876   11.9370   19.8757 O   0  0  0  0  0  0  0  0  0  0  0  0
    6.0167    8.4478   21.1089 C   0  0  0  0  0  0  0  0  0  0  0  0
   11.0002   10.8890   20.0262 C   0  0  0  0  0  0  0  0  0  0  0  0
    2.1721    7.7393   20.0315 O   0  0  0  0  0  0  0  0  0  0  0  0
    9.1107   10.3880   21.3769 N   0  0  0  0  0  0  0  0  0  0  0  0
    3.9102    9.2008   20.3124 C   0  0  0  0  0  0  0  0  0  0  0  0
   12.7292   10.9960   18.4597 C   0  0  0  0  0  0  0  0  0  0  0  0
    9.3798    6.6793   23.6625 C   0  0  0  0  0  0  0  0  0  0  0  0
   14.7425   10.0739   19.0802 O   0  0  0  0  0  0  0  0  0  0  0  0
    5.1894    9.4673   20.7118 C   0  0  0  0  0  0  0  0  0  0  0  0
    7.3773    8.8224   21.4870 C   0  0  0  0  0  0  0  0  0  0  0  0
    8.4391    6.6439   21.0235 C   0  0  0  0  0  0  0  0  0  0  0  0
    9.6494   11.1353   20.4167 C   0  0  0  0  0  0  0  0  0  0  0  0
    8.1431    7.6829   21.9046 C   0  0  0  0  0  0  0  0  0  0  0  0
    7.7796   10.1314   21.5115 N   0  0  0  0  0  0  0  0  0  0  0  0
    9.2768    5.6183   21.4437 C   0  0  0  0  0  0  0  0  0  0  0  0
    8.6315    7.7322   23.1768 C   0  0  0  0  0  0  0  0  0  0  0  0
   13.0537    9.9821   20.5781 C   0  0  0  0  0  0  0  0  0  0  0  0
   10.3850    4.6575   23.2386 O   0  0  0  0  0  0  0  0  0  0  0  0
    4.2069    6.8450   20.7994 C   0  0  0  0  0  0  0  0  0  0  0  0
    3.0726   10.1043   19.8522 O   0  0  0  0  0  0  0  0  0  0  0  0
    5.5057    7.1196   21.1155 C   0  0  0  0  0  0  0  0  0  0  0  0
    7.0367   11.0229   21.9948 O   0  0  0  0  0  0  0  0  0  0  0  0
  1  8  4  0
  1 12  4  0
  2  9  1  0
  2 11  4  0
  2 25  4  0
  3 12  4  0
  3 14  1  0
  3 23  4  0
  4 13  4  0
  4 21  4  0
  4 24  1  0
  5  8  4  0
  5 23  4  0
  6 18  2  0
  7 15  4  0
  7 16  1  0
  7 27  4  0
  8 18  1  0
 10 18  1  0
 10 20  1  0
 11 15  4  0
 11 26  1  0
 13 22  4  0
 16 19  1  0
 16 20  2  0
 17 19  4  0
 17 21  4  0
 19 22  4  0
 20 28  1  0
 25 27  4  0
M  END
$$$$

 Created by Python create_sdf_string function

 28 30  0  0  0  0  0  0  0  0999 V2000
   11.4592   11.2893   18.7941 C   0  0  0  0  0  0  0  0  0  0  0  0
    3.4202    7.9009   20.3866 C   0  0  0  0  0  0  0  0  0  0  0  0
   13.5280   10.3522   19.3586 C   0  0  0  0  0  0  0  0  0  0  0  0
    9.6923    5.6468   22.7891 C   0  0  0  0  0  0  0  0  0  0  0  0
   11.7756   10.2554   20.8841 N   0  0  0  0  0  0  0  0  0  0  0  0
    8.9876   11.9370   19.8757 O   0  0  0  0  0  0  0  0  0  0  0  0
    6.0167    8.4478   21.1089 C   0  0  0  0  0  0  0  0  0  0  0  0
   11.0002   10.8890   20.0262 C   0  0  0  0  0  0  0  0  0  0  0  0
    2.1721    7.7393   20.0315 O   0  0  0  0  0  0  0  0  0  0  0  0
    9.1107   10.3880   21.3769 N   0  0  0  0  0  0  0  0  0  0  0  0
    3.9102    9.2008   20.3124 C   0  0  0  0  0  0  0  0  0  0  0  0
   12.7292   10.9960   18.4597 C   0  0  0  0  0  0  0  0  0  0  0  0
    9.3798    6.6793   23.6625 C   0  0  0  0  0  0  0  0  0  0  0  0
   14.7425   10.0739   19.0802 O   0  0  0  0  0  0  0  0  0  0  0  0
    5.1894    9.4673   20.7118 C   0  0  0  0  0  0  0  0  0  0  0  0
    7.3773    8.8224   21.4870 C   0  0  0  0  0  0  0  0  0  0  0  0
    8.4391    6.6439   21.0235 C   0  0  0  0  0  0  0  0  0  0  0  0
    9.6494   11.1353   20.4167 C   0  0  0  0  0  0  0  0  0  0  0  0
    8.1431    7.6829   21.9046 C   0  0  0  0  0  0  0  0  0  0  0  0
    7.7796   10.1314   21.5115 N   0  0  0  0  0  0  0  0  0  0  0  0
    9.2768    5.6183   21.4437 C   0  0  0  0  0  0  0  0  0  0  0  0
    8.6315    7.7322   23.1768 C   0  0  0  0  0  0  0  0  0  0  0  0
   13.0537    9.9821   20.5781 C   0  0  0  0  0  0  0  0  0  0  0  0
   10.3850    4.6575   23.2386 O   0  0  0  0  0  0  0  0  0  0  0  0
    4.2069    6.8450   20.7994 C   0  0  0  0  0  0  0  0  0  0  0  0
    3.0726   10.1043   19.8522 O   0  0  0  0  0  0  0  0  0  0  0  0
    5.5057    7.1196   21.1155 C   0  0  0  0  0  0  0  0  0  0  0  0
    7.0367   11.0229   21.9948 O   0  0  0  0  0  0  0  0  0  0  0  0
  1  8  4  0
  1 12  4  0
  2  9  1  0
  2 11  4  0
  2 25  4  0
  3 12  4  0
  3 14  1  0
  3 23  4  0
  4 13  4  0
  4 21  4  0
  4 24  1  0
  5  8  4  0
  5 23  4  0
  6 18  2  0
  7 15  4  0
  7 16  1  0
  7 27  4  0
  8 18  1  0
 10 18  1  0
 10 20  1  0
 11 15  4  0
 11 26  1  0
 13 22  4  0
 16 19  1  0
 16 20  2  0
 17 19  4  0
 17 21  4  0
 19 22  4  0
 20 28  1  0
 25 27  4  0
M  END
$$$$

 Created by Python create_sdf_string function

 28 30  0  0  0  0  0  0  0  0999 V2000
   11.4592   11.2893   18.7941 C   0  0  0  0  0  0  0  0  0  0  0  0
    3.4202    7.9009   20.3866 C   0  0  0  0  0  0  0  0  0  0  0  0
   13.5280   10.3522   19.3586 C   0  0  0  0  0  0  0  0  0  0  0  0
    9.6923    5.6468   22.7891 C   0  0  0  0  0  0  0  0  0  0  0  0
   11.7756   10.2554   20.8841 N   0  0  0  0  0  0  0  0  0  0  0  0
    8.9876   11.9370   19.8757 O   0  0  0  0  0  0  0  0  0  0  0  0
    6.0167    8.4478   21.1089 C   0  0  0  0  0  0  0  0  0  0  0  0
   11.0002   10.8890   20.0262 C   0  0  0  0  0  0  0  0  0  0  0  0
    2.1721    7.7393   20.0315 O   0  0  0  0  0  0  0  0  0  0  0  0
    9.1107   10.3880   21.3769 N   0  0  0  0  0  0  0  0  0  0  0  0
    3.9102    9.2008   20.3124 C   0  0  0  0  0  0  0  0  0  0  0  0
   12.7292   10.9960   18.4597 C   0  0  0  0  0  0  0  0  0  0  0  0
    9.3798    6.6793   23.6625 C   0  0  0  0  0  0  0  0  0  0  0  0
   14.7425   10.0739   19.0802 O   0  0  0  0  0  0  0  0  0  0  0  0
    5.1894    9.4673   20.7118 C   0  0  0  0  0  0  0  0  0  0  0  0
    7.3773    8.8224   21.4870 C   0  0  0  0  0  0  0  0  0  0  0  0
    8.4391    6.6439   21.0235 C   0  0  0  0  0  0  0  0  0  0  0  0
    9.6494   11.1353   20.4167 C   0  0  0  0  0  0  0  0  0  0  0  0
    8.1431    7.6829   21.9046 C   0  0  0  0  0  0  0  0  0  0  0  0
    7.7796   10.1314   21.5115 N   0  0  0  0  0  0  0  0  0  0  0  0
    9.2768    5.6183   21.4437 C   0  0  0  0  0  0  0  0  0  0  0  0
    8.6315    7.7322   23.1768 C   0  0  0  0  0  0  0  0  0  0  0  0
   13.0537    9.9821   20.5781 C   0  0  0  0  0  0  0  0  0  0  0  0
   10.3850    4.6575   23.2386 O   0  0  0  0  0  0  0  0  0  0  0  0
    4.2069    6.8450   20.7994 C   0  0  0  0  0  0  0  0  0  0  0  0
    3.0726   10.1043   19.8522 O   0  0  0  0  0  0  0  0  0  0  0  0
    5.5057    7.1196   21.1155 C   0  0  0  0  0  0  0  0  0  0  0  0
    7.0367   11.0229   21.9948 O   0  0  0  0  0  0  0  0  0  0  0  0
  1  8  4  0
  1 12  4  0
  2  9  1  0
  2 11  4  0
  2 25  4  0
  3 12  4  0
  3 14  1  0
  3 23  4  0
  4 13  4  0
  4 21  4  0
  4 24  1  0
  5  8  4  0
  5 23  4  0
  6 18  2  0
  7 15  4  0
  7 16  1  0
  7 27  4  0
  8 18  1  0
 10 18  1  0
 10 20  1  0
 11 15  4  0
 11 26  1  0
 13 22  4  0
 16 19  1  0
 16 20  2  0
 17 19  4  0
 17 21  4  0
 19 22  4  0
 20 28  1  0
 25 27  4  0
M  END
$$$$

 Created by Python create_sdf_string function

 28 30  0  0  0  0  0  0  0  0999 V2000
   11.4592   11.2893   18.7941 C   0  0  0  0  0  0  0  0  0  0  0  0
    3.4202    7.9009   20.3866 C   0  0  0  0  0  0  0  0  0  0  0  0
   13.5280   10.3522   19.3586 C   0  0  0  0  0  0  0  0  0  0  0  0
    9.6923    5.6468   22.7891 C   0  0  0  0  0  0  0  0  0  0  0  0
   11.7756   10.2554   20.8841 N   0  0  0  0  0  0  0  0  0  0  0  0
    8.9876   11.9370   19.8757 O   0  0  0  0  0  0  0  0  0  0  0  0
    6.0167    8.4478   21.1089 C   0  0  0  0  0  0  0  0  0  0  0  0
   11.0002   10.8890   20.0262 C   0  0  0  0  0  0  0  0  0  0  0  0
    2.1721    7.7393   20.0315 O   0  0  0  0  0  0  0  0  0  0  0  0
    9.1107   10.3880   21.3769 N   0  0  0  0  0  0  0  0  0  0  0  0
    3.9102    9.2008   20.3124 C   0  0  0  0  0  0  0  0  0  0  0  0
   12.7292   10.9960   18.4597 C   0  0  0  0  0  0  0  0  0  0  0  0
    9.3798    6.6793   23.6625 C   0  0  0  0  0  0  0  0  0  0  0  0
   14.7425   10.0739   19.0802 O   0  0  0  0  0  0  0  0  0  0  0  0
    5.1894    9.4673   20.7118 C   0  0  0  0  0  0  0  0  0  0  0  0
    7.3773    8.8224   21.4870 C   0  0  0  0  0  0  0  0  0  0  0  0
    8.4391    6.6439   21.0235 C   0  0  0  0  0  0  0  0  0  0  0  0
    9.6494   11.1353   20.4167 C   0  0  0  0  0  0  0  0  0  0  0  0
    8.1431    7.6829   21.9046 C   0  0  0  0  0  0  0  0  0  0  0  0
    7.7796   10.1314   21.5115 N   0  0  0  0  0  0  0  0  0  0  0  0
    9.2768    5.6183   21.4437 C   0  0  0  0  0  0  0  0  0  0  0  0
    8.6315    7.7322   23.1768 C   0  0  0  0  0  0  0  0  0  0  0  0
   13.0537    9.9821   20.5781 C   0  0  0  0  0  0  0  0  0  0  0  0
   10.3850    4.6575   23.2386 O   0  0  0  0  0  0  0  0  0  0  0  0
    4.2069    6.8450   20.7994 C   0  0  0  0  0  0  0  0  0  0  0  0
    3.0726   10.1043   19.8522 O   0  0  0  0  0  0  0  0  0  0  0  0
    5.5057    7.1196   21.1155 C   0  0  0  0  0  0  0  0  0  0  0  0
    7.0367   11.0229   21.9948 O   0  0  0  0  0  0  0  0  0  0  0  0
  1  8  4  0
  1 12  4  0
  2  9  1  0
  2 11  4  0
  2 25  4  0
  3 12  4  0
  3 14  1  0
  3 23  4  0
  4 13  4  0
  4 21  4  0
  4 24  1  0
  5  8  4  0
  5 23  4  0
  6 18  2  0
  7 15  4  0
  7 16  1  0
  7 27  4  0
  8 18  1  0
 10 18  1  0
 10 20  1  0
 11 15  4  0
 11 26  1  0
 13 22  4  0
 16 19  1  0
 16 20  2  0
 17 19  4  0
 17 21  4  0
 19 22  4  0
 20 28  1  0
 25 27  4  0
M  END
$$$$

 Created by Python create_sdf_string function

 28 30  0  0  0  0  0  0  0  0999 V2000
   11.4592   11.2893   18.7941 C   0  0  0  0  0  0  0  0  0  0  0  0
    3.4202    7.9009   20.3866 C   0  0  0  0  0  0  0  0  0  0  0  0
   13.5280   10.3522   19.3586 C   0  0  0  0  0  0  0  0  0  0  0  0
    9.6923    5.6468   22.7891 C   0  0  0  0  0  0  0  0  0  0  0  0
   11.7756   10.2554   20.8841 N   0  0  0  0  0  0  0  0  0  0  0  0
    8.9876   11.9370   19.8757 O   0  0  0  0  0  0  0  0  0  0  0  0
    6.0167    8.4478   21.1089 C   0  0  0  0  0  0  0  0  0  0  0  0
   11.0002   10.8890   20.0262 C   0  0  0  0  0  0  0  0  0  0  0  0
    2.1721    7.7393   20.0315 O   0  0  0  0  0  0  0  0  0  0  0  0
    9.1107   10.3880   21.3769 N   0  0  0  0  0  0  0  0  0  0  0  0
    3.9102    9.2008   20.3124 C   0  0  0  0  0  0  0  0  0  0  0  0
   12.7292   10.9960   18.4597 C   0  0  0  0  0  0  0  0  0  0  0  0
    9.3798    6.6793   23.6625 C   0  0  0  0  0  0  0  0  0  0  0  0
   14.7425   10.0739   19.0802 O   0  0  0  0  0  0  0  0  0  0  0  0
    5.1894    9.4673   20.7118 C   0  0  0  0  0  0  0  0  0  0  0  0
    7.3773    8.8224   21.4870 C   0  0  0  0  0  0  0  0  0  0  0  0
    8.4391    6.6439   21.0235 C   0  0  0  0  0  0  0  0  0  0  0  0
    9.6494   11.1353   20.4167 C   0  0  0  0  0  0  0  0  0  0  0  0
    8.1431    7.6829   21.9046 C   0  0  0  0  0  0  0  0  0  0  0  0
    7.7796   10.1314   21.5115 N   0  0  0  0  0  0  0  0  0  0  0  0
    9.2768    5.6183   21.4437 C   0  0  0  0  0  0  0  0  0  0  0  0
    8.6315    7.7322   23.1768 C   0  0  0  0  0  0  0  0  0  0  0  0
   13.0537    9.9821   20.5781 C   0  0  0  0  0  0  0  0  0  0  0  0
   10.3850    4.6575   23.2386 O   0  0  0  0  0  0  0  0  0  0  0  0
    4.2069    6.8450   20.7994 C   0  0  0  0  0  0  0  0  0  0  0  0
    3.0726   10.1043   19.8522 O   0  0  0  0  0  0  0  0  0  0  0  0
    5.5057    7.1196   21.1155 C   0  0  0  0  0  0  0  0  0  0  0  0
    7.0367   11.0229   21.9948 O   0  0  0  0  0  0  0  0  0  0  0  0
  1  8  4  0
  1 12  4  0
  2  9  1  0
  2 11  4  0
  2 25  4  0
  3 12  4  0
  3 14  1  0
  3 23  4  0
  4 13  4  0
  4 21  4  0
  4 24  1  0
  5  8  4  0
  5 23  4  0
  6 18  2  0
  7 15  4  0
  7 16  1  0
  7 27  4  0
  8 18  1  0
 10 18  1  0
 10 20  1  0
 11 15  4  0
 11 26  1  0
 13 22  4  0
 16 19  1  0
 16 20  2  0
 17 19  4  0
 17 21  4  0
 19 22  4  0
 20 28  1  0
 25 27  4  0
M  END
$$$$

 Created by Python create_sdf_string function

 28 30  0  0  0  0  0  0  0  0999 V2000
   11.4592   11.2893   18.7941 C   0  0  0  0  0  0  0  0  0  0  0  0
    3.4202    7.9009   20.3866 C   0  0  0  0  0  0  0  0  0  0  0  0
   13.5280   10.3522   19.3586 C   0  0  0  0  0  0  0  0  0  0  0  0
    9.6923    5.6468   22.7891 C   0  0  0  0  0  0  0  0  0  0  0  0
   11.7756   10.2554   20.8841 N   0  0  0  0  0  0  0  0  0  0  0  0
    8.9876   11.9370   19.8757 O   0  0  0  0  0  0  0  0  0  0  0  0
    6.0167    8.4478   21.1089 C   0  0  0  0  0  0  0  0  0  0  0  0
   11.0002   10.8890   20.0262 C   0  0  0  0  0  0  0  0  0  0  0  0
    2.1721    7.7393   20.0315 O   0  0  0  0  0  0  0  0  0  0  0  0
    9.1107   10.3880   21.3769 N   0  0  0  0  0  0  0  0  0  0  0  0
    3.9102    9.2008   20.3124 C   0  0  0  0  0  0  0  0  0  0  0  0
   12.7292   10.9960   18.4597 C   0  0  0  0  0  0  0  0  0  0  0  0
    9.3798    6.6793   23.6625 C   0  0  0  0  0  0  0  0  0  0  0  0
   14.7425   10.0739   19.0802 O   0  0  0  0  0  0  0  0  0  0  0  0
    5.1894    9.4673   20.7118 C   0  0  0  0  0  0  0  0  0  0  0  0
    7.3773    8.8224   21.4870 C   0  0  0  0  0  0  0  0  0  0  0  0
    8.4391    6.6439   21.0235 C   0  0  0  0  0  0  0  0  0  0  0  0
    9.6494   11.1353   20.4167 C   0  0  0  0  0  0  0  0  0  0  0  0
    8.1431    7.6829   21.9046 C   0  0  0  0  0  0  0  0  0  0  0  0
    7.7796   10.1314   21.5115 N   0  0  0  0  0  0  0  0  0  0  0  0
    9.2768    5.6183   21.4437 C   0  0  0  0  0  0  0  0  0  0  0  0
    8.6315    7.7322   23.1768 C   0  0  0  0  0  0  0  0  0  0  0  0
   13.0537    9.9821   20.5781 C   0  0  0  0  0  0  0  0  0  0  0  0
   10.3850    4.6575   23.2386 O   0  0  0  0  0  0  0  0  0  0  0  0
    4.2069    6.8450   20.7994 C   0  0  0  0  0  0  0  0  0  0  0  0
    3.0726   10.1043   19.8522 O   0  0  0  0  0  0  0  0  0  0  0  0
    5.5057    7.1196   21.1155 C   0  0  0  0  0  0  0  0  0  0  0  0
    7.0367   11.0229   21.9948 O   0  0  0  0  0  0  0  0  0  0  0  0
  1  8  4  0
  1 12  4  0
  2  9  1  0
  2 11  4  0
  2 25  4  0
  3 12  4  0
  3 14  1  0
  3 23  4  0
  4 13  4  0
  4 21  4  0
  4 24  1  0
  5  8  4  0
  5 23  4  0
  6 18  2  0
  7 15  4  0
  7 16  1  0
  7 27  4  0
  8 18  1  0
 10 18  1  0
 10 20  1  0
 11 15  4  0
 11 26  1  0
 13 22  4  0
 16 19  1  0
 16 20  2  0
 17 19  4  0
 17 21  4  0
 19 22  4  0
 20 28  1  0
 25 27  4  0
M  END
$$$$

 Created by Python create_sdf_string function

 28 30  0  0  0  0  0  0  0  0999 V2000
   11.4592   11.2893   18.7941 C   0  0  0  0  0  0  0  0  0  0  0  0
    3.4202    7.9009   20.3866 C   0  0  0  0  0  0  0  0  0  0  0  0
   13.5280   10.3522   19.3586 C   0  0  0  0  0  0  0  0  0  0  0  0
    9.6923    5.6468   22.7891 C   0  0  0  0  0  0  0  0  0  0  0  0
   11.7756   10.2554   20.8841 N   0  0  0  0  0  0  0  0  0  0  0  0
    8.9876   11.9370   19.8757 O   0  0  0  0  0  0  0  0  0  0  0  0
    6.0167    8.4478   21.1089 C   0  0  0  0  0  0  0  0  0  0  0  0
   11.0002   10.8890   20.0262 C   0  0  0  0  0  0  0  0  0  0  0  0
    2.1721    7.7393   20.0315 O   0  0  0  0  0  0  0  0  0  0  0  0
    9.1107   10.3880   21.3769 N   0  0  0  0  0  0  0  0  0  0  0  0
    3.9102    9.2008   20.3124 C   0  0  0  0  0  0  0  0  0  0  0  0
   12.7292   10.9960   18.4597 C   0  0  0  0  0  0  0  0  0  0  0  0
    9.3798    6.6793   23.6625 C   0  0  0  0  0  0  0  0  0  0  0  0
   14.7425   10.0739   19.0802 O   0  0  0  0  0  0  0  0  0  0  0  0
    5.1894    9.4673   20.7118 C   0  0  0  0  0  0  0  0  0  0  0  0
    7.3773    8.8224   21.4870 C   0  0  0  0  0  0  0  0  0  0  0  0
    8.4391    6.6439   21.0235 C   0  0  0  0  0  0  0  0  0  0  0  0
    9.6494   11.1353   20.4167 C   0  0  0  0  0  0  0  0  0  0  0  0
    8.1431    7.6829   21.9046 C   0  0  0  0  0  0  0  0  0  0  0  0
    7.7796   10.1314   21.5115 N   0  0  0  0  0  0  0  0  0  0  0  0
    9.2768    5.6183   21.4437 C   0  0  0  0  0  0  0  0  0  0  0  0
    8.6315    7.7322   23.1768 C   0  0  0  0  0  0  0  0  0  0  0  0
   13.0537    9.9821   20.5781 C   0  0  0  0  0  0  0  0  0  0  0  0
   10.3850    4.6575   23.2386 O   0  0  0  0  0  0  0  0  0  0  0  0
    4.2069    6.8450   20.7994 C   0  0  0  0  0  0  0  0  0  0  0  0
    3.0726   10.1043   19.8522 O   0  0  0  0  0  0  0  0  0  0  0  0
    5.5057    7.1196   21.1155 C   0  0  0  0  0  0  0  0  0  0  0  0
    7.0367   11.0229   21.9948 O   0  0  0  0  0  0  0  0  0  0  0  0
  1  8  4  0
  1 12  4  0
  2  9  1  0
  2 11  4  0
  2 25  4  0
  3 12  4  0
  3 14  1  0
  3 23  4  0
  4 13  4  0
  4 21  4  0
  4 24  1  0
  5  8  4  0
  5 23  4  0
  6 18  2  0
  7 15  4  0
  7 16  1  0
  7 27  4  0
  8 18  1  0
 10 18  1  0
 10 20  1  0
 11 15  4  0
 11 26  1  0
 13 22  4  0
 16 19  1  0
 16 20  2  0
 17 19  4  0
 17 21  4  0
 19 22  4  0
 20 28  1  0
 25 27  4  0
M  END
$$$$

 Created by Python create_sdf_string function

 28 30  0  0  0  0  0  0  0  0999 V2000
   11.4592   11.2893   18.7941 C   0  0  0  0  0  0  0  0  0  0  0  0
    3.4202    7.9009   20.3866 C   0  0  0  0  0  0  0  0  0  0  0  0
   13.5280   10.3522   19.3586 C   0  0  0  0  0  0  0  0  0  0  0  0
    9.6923    5.6468   22.7891 C   0  0  0  0  0  0  0  0  0  0  0  0
   11.7756   10.2554   20.8841 N   0  0  0  0  0  0  0  0  0  0  0  0
    8.9876   11.9370   19.8757 O   0  0  0  0  0  0  0  0  0  0  0  0
    6.0167    8.4478   21.1089 C   0  0  0  0  0  0  0  0  0  0  0  0
   11.0002   10.8890   20.0262 C   0  0  0  0  0  0  0  0  0  0  0  0
    2.1721    7.7393   20.0315 O   0  0  0  0  0  0  0  0  0  0  0  0
    9.1107   10.3880   21.3769 N   0  0  0  0  0  0  0  0  0  0  0  0
    3.9102    9.2008   20.3124 C   0  0  0  0  0  0  0  0  0  0  0  0
   12.7292   10.9960   18.4597 C   0  0  0  0  0  0  0  0  0  0  0  0
    9.3798    6.6793   23.6625 C   0  0  0  0  0  0  0  0  0  0  0  0
   14.7425   10.0739   19.0802 O   0  0  0  0  0  0  0  0  0  0  0  0
    5.1894    9.4673   20.7118 C   0  0  0  0  0  0  0  0  0  0  0  0
    7.3773    8.8224   21.4870 C   0  0  0  0  0  0  0  0  0  0  0  0
    8.4391    6.6439   21.0235 C   0  0  0  0  0  0  0  0  0  0  0  0
    9.6494   11.1353   20.4167 C   0  0  0  0  0  0  0  0  0  0  0  0
    8.1431    7.6829   21.9046 C   0  0  0  0  0  0  0  0  0  0  0  0
    7.7796   10.1314   21.5115 N   0  0  0  0  0  0  0  0  0  0  0  0
    9.2768    5.6183   21.4437 C   0  0  0  0  0  0  0  0  0  0  0  0
    8.6315    7.7322   23.1768 C   0  0  0  0  0  0  0  0  0  0  0  0
   13.0537    9.9821   20.5781 C   0  0  0  0  0  0  0  0  0  0  0  0
   10.3850    4.6575   23.2386 O   0  0  0  0  0  0  0  0  0  0  0  0
    4.2069    6.8450   20.7994 C   0  0  0  0  0  0  0  0  0  0  0  0
    3.0726   10.1043   19.8522 O   0  0  0  0  0  0  0  0  0  0  0  0
    5.5057    7.1196   21.1155 C   0  0  0  0  0  0  0  0  0  0  0  0
    7.0367   11.0229   21.9948 O   0  0  0  0  0  0  0  0  0  0  0  0
  1  8  4  0
  1 12  4  0
  2  9  1  0
  2 11  4  0
  2 25  4  0
  3 12  4  0
  3 14  1  0
  3 23  4  0
  4 13  4  0
  4 21  4  0
  4 24  1  0
  5  8  4  0
  5 23  4  0
  6 18  2  0
  7 15  4  0
  7 16  1  0
  7 27  4  0
  8 18  1  0
 10 18  1  0
 10 20  1  0
 11 15  4  0
 11 26  1  0
 13 22  4  0
 16 19  1  0
 16 20  2  0
 17 19  4  0
 17 21  4  0
 19 22  4  0
 20 28  1  0
 25 27  4  0
M  END
$$$$

 Created by Python create_sdf_string function

 28 30  0  0  0  0  0  0  0  0999 V2000
   11.4592   11.2893   18.7941 C   0  0  0  0  0  0  0  0  0  0  0  0
    3.4202    7.9009   20.3866 C   0  0  0  0  0  0  0  0  0  0  0  0
   13.5280   10.3522   19.3586 C   0  0  0  0  0  0  0  0  0  0  0  0
    9.6923    5.6468   22.7891 C   0  0  0  0  0  0  0  0  0  0  0  0
   11.7756   10.2554   20.8841 N   0  0  0  0  0  0  0  0  0  0  0  0
    8.9876   11.9370   19.8757 O   0  0  0  0  0  0  0  0  0  0  0  0
    6.0167    8.4478   21.1089 C   0  0  0  0  0  0  0  0  0  0  0  0
   11.0002   10.8890   20.0262 C   0  0  0  0  0  0  0  0  0  0  0  0
    2.1721    7.7393   20.0315 O   0  0  0  0  0  0  0  0  0  0  0  0
    9.1107   10.3880   21.3769 N   0  0  0  0  0  0  0  0  0  0  0  0
    3.9102    9.2008   20.3124 C   0  0  0  0  0  0  0  0  0  0  0  0
   12.7292   10.9960   18.4597 C   0  0  0  0  0  0  0  0  0  0  0  0
    9.3798    6.6793   23.6625 C   0  0  0  0  0  0  0  0  0  0  0  0
   14.7425   10.0739   19.0802 O   0  0  0  0  0  0  0  0  0  0  0  0
    5.1894    9.4673   20.7118 C   0  0  0  0  0  0  0  0  0  0  0  0
    7.3773    8.8224   21.4870 C   0  0  0  0  0  0  0  0  0  0  0  0
    8.4391    6.6439   21.0235 C   0  0  0  0  0  0  0  0  0  0  0  0
    9.6494   11.1353   20.4167 C   0  0  0  0  0  0  0  0  0  0  0  0
    8.1431    7.6829   21.9046 C   0  0  0  0  0  0  0  0  0  0  0  0
    7.7796   10.1314   21.5115 N   0  0  0  0  0  0  0  0  0  0  0  0
    9.2768    5.6183   21.4437 C   0  0  0  0  0  0  0  0  0  0  0  0
    8.6315    7.7322   23.1768 C   0  0  0  0  0  0  0  0  0  0  0  0
   13.0537    9.9821   20.5781 C   0  0  0  0  0  0  0  0  0  0  0  0
   10.3850    4.6575   23.2386 O   0  0  0  0  0  0  0  0  0  0  0  0
    4.2069    6.8450   20.7994 C   0  0  0  0  0  0  0  0  0  0  0  0
    3.0726   10.1043   19.8522 O   0  0  0  0  0  0  0  0  0  0  0  0
    5.5057    7.1196   21.1155 C   0  0  0  0  0  0  0  0  0  0  0  0
    7.0367   11.0229   21.9948 O   0  0  0  0  0  0  0  0  0  0  0  0
  1  8  4  0
  1 12  4  0
  2  9  1  0
  2 11  4  0
  2 25  4  0
  3 12  4  0
  3 14  1  0
  3 23  4  0
  4 13  4  0
  4 21  4  0
  4 24  1  0
  5  8  4  0
  5 23  4  0
  6 18  2  0
  7 15  4  0
  7 16  1  0
  7 27  4  0
  8 18  1  0
 10 18  1  0
 10 20  1  0
 11 15  4  0
 11 26  1  0
 13 22  4  0
 16 19  1  0
 16 20  2  0
 17 19  4  0
 17 21  4  0
 19 22  4  0
 20 28  1  0
 25 27  4  0
M  END
$$$$

 Created by Python create_sdf_string function

 28 30  0  0  0  0  0  0  0  0999 V2000
   11.4592   11.2893   18.7941 C   0  0  0  0  0  0  0  0  0  0  0  0
    3.4202    7.9009   20.3866 C   0  0  0  0  0  0  0  0  0  0  0  0
   13.5280   10.3522   19.3586 C   0  0  0  0  0  0  0  0  0  0  0  0
    9.6923    5.6468   22.7891 C   0  0  0  0  0  0  0  0  0  0  0  0
   11.7756   10.2554   20.8841 N   0  0  0  0  0  0  0  0  0  0  0  0
    8.9876   11.9370   19.8757 O   0  0  0  0  0  0  0  0  0  0  0  0
    6.0167    8.4478   21.1089 C   0  0  0  0  0  0  0  0  0  0  0  0
   11.0002   10.8890   20.0262 C   0  0  0  0  0  0  0  0  0  0  0  0
    2.1721    7.7393   20.0315 O   0  0  0  0  0  0  0  0  0  0  0  0
    9.1107   10.3880   21.3769 N   0  0  0  0  0  0  0  0  0  0  0  0
    3.9102    9.2008   20.3124 C   0  0  0  0  0  0  0  0  0  0  0  0
   12.7292   10.9960   18.4597 C   0  0  0  0  0  0  0  0  0  0  0  0
    9.3798    6.6793   23.6625 C   0  0  0  0  0  0  0  0  0  0  0  0
   14.7425   10.0739   19.0802 O   0  0  0  0  0  0  0  0  0  0  0  0
    5.1894    9.4673   20.7118 C   0  0  0  0  0  0  0  0  0  0  0  0
    7.3773    8.8224   21.4870 C   0  0  0  0  0  0  0  0  0  0  0  0
    8.4391    6.6439   21.0235 C   0  0  0  0  0  0  0  0  0  0  0  0
    9.6494   11.1353   20.4167 C   0  0  0  0  0  0  0  0  0  0  0  0
    8.1431    7.6829   21.9046 C   0  0  0  0  0  0  0  0  0  0  0  0
    7.7796   10.1314   21.5115 N   0  0  0  0  0  0  0  0  0  0  0  0
    9.2768    5.6183   21.4437 C   0  0  0  0  0  0  0  0  0  0  0  0
    8.6315    7.7322   23.1768 C   0  0  0  0  0  0  0  0  0  0  0  0
   13.0537    9.9821   20.5781 C   0  0  0  0  0  0  0  0  0  0  0  0
   10.3850    4.6575   23.2386 O   0  0  0  0  0  0  0  0  0  0  0  0
    4.2069    6.8450   20.7994 C   0  0  0  0  0  0  0  0  0  0  0  0
    3.0726   10.1043   19.8522 O   0  0  0  0  0  0  0  0  0  0  0  0
    5.5057    7.1196   21.1155 C   0  0  0  0  0  0  0  0  0  0  0  0
    7.0367   11.0229   21.9948 O   0  0  0  0  0  0  0  0  0  0  0  0
  1  8  4  0
  1 12  4  0
  2  9  1  0
  2 11  4  0
  2 25  4  0
  3 12  4  0
  3 14  1  0
  3 23  4  0
  4 13  4  0
  4 21  4  0
  4 24  1  0
  5  8  4  0
  5 23  4  0
  6 18  2  0
  7 15  4  0
  7 16  1  0
  7 27  4  0
  8 18  1  0
 10 18  1  0
 10 20  1  0
 11 15  4  0
 11 26  1  0
 13 22  4  0
 16 19  1  0
 16 20  2  0
 17 19  4  0
 17 21  4  0
 19 22  4  0
 20 28  1  0
 25 27  4  0
M  END
$$$$

 Created by Python create_sdf_string function

 28 30  0  0  0  0  0  0  0  0999 V2000
   11.4592   11.2893   18.7941 C   0  0  0  0  0  0  0  0  0  0  0  0
    3.4202    7.9009   20.3866 C   0  0  0  0  0  0  0  0  0  0  0  0
   13.5280   10.3522   19.3586 C   0  0  0  0  0  0  0  0  0  0  0  0
    9.6923    5.6468   22.7891 C   0  0  0  0  0  0  0  0  0  0  0  0
   11.7756   10.2554   20.8841 N   0  0  0  0  0  0  0  0  0  0  0  0
    8.9876   11.9370   19.8757 O   0  0  0  0  0  0  0  0  0  0  0  0
    6.0167    8.4478   21.1089 C   0  0  0  0  0  0  0  0  0  0  0  0
   11.0002   10.8890   20.0262 C   0  0  0  0  0  0  0  0  0  0  0  0
    2.1721    7.7393   20.0315 O   0  0  0  0  0  0  0  0  0  0  0  0
    9.1107   10.3880   21.3769 N   0  0  0  0  0  0  0  0  0  0  0  0
    3.9102    9.2008   20.3124 C   0  0  0  0  0  0  0  0  0  0  0  0
   12.7292   10.9960   18.4597 C   0  0  0  0  0  0  0  0  0  0  0  0
    9.3798    6.6793   23.6625 C   0  0  0  0  0  0  0  0  0  0  0  0
   14.7425   10.0739   19.0802 O   0  0  0  0  0  0  0  0  0  0  0  0
    5.1894    9.4673   20.7118 C   0  0  0  0  0  0  0  0  0  0  0  0
    7.3773    8.8224   21.4870 C   0  0  0  0  0  0  0  0  0  0  0  0
    8.4391    6.6439   21.0235 C   0  0  0  0  0  0  0  0  0  0  0  0
    9.6494   11.1353   20.4167 C   0  0  0  0  0  0  0  0  0  0  0  0
    8.1431    7.6829   21.9046 C   0  0  0  0  0  0  0  0  0  0  0  0
    7.7796   10.1314   21.5115 N   0  0  0  0  0  0  0  0  0  0  0  0
    9.2768    5.6183   21.4437 C   0  0  0  0  0  0  0  0  0  0  0  0
    8.6315    7.7322   23.1768 C   0  0  0  0  0  0  0  0  0  0  0  0
   13.0537    9.9821   20.5781 C   0  0  0  0  0  0  0  0  0  0  0  0
   10.3850    4.6575   23.2386 O   0  0  0  0  0  0  0  0  0  0  0  0
    4.2069    6.8450   20.7994 C   0  0  0  0  0  0  0  0  0  0  0  0
    3.0726   10.1043   19.8522 O   0  0  0  0  0  0  0  0  0  0  0  0
    5.5057    7.1196   21.1155 C   0  0  0  0  0  0  0  0  0  0  0  0
    7.0367   11.0229   21.9948 O   0  0  0  0  0  0  0  0  0  0  0  0
  1  8  4  0
  1 12  4  0
  2  9  1  0
  2 11  4  0
  2 25  4  0
  3 12  4  0
  3 14  1  0
  3 23  4  0
  4 13  4  0
  4 21  4  0
  4 24  1  0
  5  8  4  0
  5 23  4  0
  6 18  2  0
  7 15  4  0
  7 16  1  0
  7 27  4  0
  8 18  1  0
 10 18  1  0
 10 20  1  0
 11 15  4  0
 11 26  1  0
 13 22  4  0
 16 19  1  0
 16 20  2  0
 17 19  4  0
 17 21  4  0
 19 22  4  0
 20 28  1  0
 25 27  4  0
M  END
$$$$

 Created by Python create_sdf_string function

 28 30  0  0  0  0  0  0  0  0999 V2000
   11.4592   11.2893   18.7941 C   0  0  0  0  0  0  0  0  0  0  0  0
    3.4202    7.9009   20.3866 C   0  0  0  0  0  0  0  0  0  0  0  0
   13.5280   10.3522   19.3586 C   0  0  0  0  0  0  0  0  0  0  0  0
    9.6923    5.6468   22.7891 C   0  0  0  0  0  0  0  0  0  0  0  0
   11.7756   10.2554   20.8841 N   0  0  0  0  0  0  0  0  0  0  0  0
    8.9876   11.9370   19.8757 O   0  0  0  0  0  0  0  0  0  0  0  0
    6.0167    8.4478   21.1089 C   0  0  0  0  0  0  0  0  0  0  0  0
   11.0002   10.8890   20.0262 C   0  0  0  0  0  0  0  0  0  0  0  0
    2.1721    7.7393   20.0315 O   0  0  0  0  0  0  0  0  0  0  0  0
    9.1107   10.3880   21.3769 N   0  0  0  0  0  0  0  0  0  0  0  0
    3.9102    9.2008   20.3124 C   0  0  0  0  0  0  0  0  0  0  0  0
   12.7292   10.9960   18.4597 C   0  0  0  0  0  0  0  0  0  0  0  0
    9.3798    6.6793   23.6625 C   0  0  0  0  0  0  0  0  0  0  0  0
   14.7425   10.0739   19.0802 O   0  0  0  0  0  0  0  0  0  0  0  0
    5.1894    9.4673   20.7118 C   0  0  0  0  0  0  0  0  0  0  0  0
    7.3773    8.8224   21.4870 C   0  0  0  0  0  0  0  0  0  0  0  0
    8.4391    6.6439   21.0235 C   0  0  0  0  0  0  0  0  0  0  0  0
    9.6494   11.1353   20.4167 C   0  0  0  0  0  0  0  0  0  0  0  0
    8.1431    7.6829   21.9046 C   0  0  0  0  0  0  0  0  0  0  0  0
    7.7796   10.1314   21.5115 N   0  0  0  0  0  0  0  0  0  0  0  0
    9.2768    5.6183   21.4437 C   0  0  0  0  0  0  0  0  0  0  0  0
    8.6315    7.7322   23.1768 C   0  0  0  0  0  0  0  0  0  0  0  0
   13.0537    9.9821   20.5781 C   0  0  0  0  0  0  0  0  0  0  0  0
   10.3850    4.6575   23.2386 O   0  0  0  0  0  0  0  0  0  0  0  0
    4.2069    6.8450   20.7994 C   0  0  0  0  0  0  0  0  0  0  0  0
    3.0726   10.1043   19.8522 O   0  0  0  0  0  0  0  0  0  0  0  0
    5.5057    7.1196   21.1155 C   0  0  0  0  0  0  0  0  0  0  0  0
    7.0367   11.0229   21.9948 O   0  0  0  0  0  0  0  0  0  0  0  0
  1  8  4  0
  1 12  4  0
  2  9  1  0
  2 11  4  0
  2 25  4  0
  3 12  4  0
  3 14  1  0
  3 23  4  0
  4 13  4  0
  4 21  4  0
  4 24  1  0
  5  8  4  0
  5 23  4  0
  6 18  2  0
  7 15  4  0
  7 16  1  0
  7 27  4  0
  8 18  1  0
 10 18  1  0
 10 20  1  0
 11 15  4  0
 11 26  1  0
 13 22  4  0
 16 19  1  0
 16 20  2  0
 17 19  4  0
 17 21  4  0
 19 22  4  0
 20 28  1  0
 25 27  4  0
M  END
$$$$

 Created by Python create_sdf_string function

 28 30  0  0  0  0  0  0  0  0999 V2000
   11.4592   11.2893   18.7941 C   0  0  0  0  0  0  0  0  0  0  0  0
    3.4202    7.9009   20.3866 C   0  0  0  0  0  0  0  0  0  0  0  0
   13.5280   10.3522   19.3586 C   0  0  0  0  0  0  0  0  0  0  0  0
    9.6923    5.6468   22.7891 C   0  0  0  0  0  0  0  0  0  0  0  0
   11.7756   10.2554   20.8841 N   0  0  0  0  0  0  0  0  0  0  0  0
    8.9876   11.9370   19.8757 O   0  0  0  0  0  0  0  0  0  0  0  0
    6.0167    8.4478   21.1089 C   0  0  0  0  0  0  0  0  0  0  0  0
   11.0002   10.8890   20.0262 C   0  0  0  0  0  0  0  0  0  0  0  0
    2.1721    7.7393   20.0315 O   0  0  0  0  0  0  0  0  0  0  0  0
    9.1107   10.3880   21.3769 N   0  0  0  0  0  0  0  0  0  0  0  0
    3.9102    9.2008   20.3124 C   0  0  0  0  0  0  0  0  0  0  0  0
   12.7292   10.9960   18.4597 C   0  0  0  0  0  0  0  0  0  0  0  0
    9.3798    6.6793   23.6625 C   0  0  0  0  0  0  0  0  0  0  0  0
   14.7425   10.0739   19.0802 O   0  0  0  0  0  0  0  0  0  0  0  0
    5.1894    9.4673   20.7118 C   0  0  0  0  0  0  0  0  0  0  0  0
    7.3773    8.8224   21.4870 C   0  0  0  0  0  0  0  0  0  0  0  0
    8.4391    6.6439   21.0235 C   0  0  0  0  0  0  0  0  0  0  0  0
    9.6494   11.1353   20.4167 C   0  0  0  0  0  0  0  0  0  0  0  0
    8.1431    7.6829   21.9046 C   0  0  0  0  0  0  0  0  0  0  0  0
    7.7796   10.1314   21.5115 N   0  0  0  0  0  0  0  0  0  0  0  0
    9.2768    5.6183   21.4437 C   0  0  0  0  0  0  0  0  0  0  0  0
    8.6315    7.7322   23.1768 C   0  0  0  0  0  0  0  0  0  0  0  0
   13.0537    9.9821   20.5781 C   0  0  0  0  0  0  0  0  0  0  0  0
   10.3850    4.6575   23.2386 O   0  0  0  0  0  0  0  0  0  0  0  0
    4.2069    6.8450   20.7994 C   0  0  0  0  0  0  0  0  0  0  0  0
    3.0726   10.1043   19.8522 O   0  0  0  0  0  0  0  0  0  0  0  0
    5.5057    7.1196   21.1155 C   0  0  0  0  0  0  0  0  0  0  0  0
    7.0367   11.0229   21.9948 O   0  0  0  0  0  0  0  0  0  0  0  0
  1  8  4  0
  1 12  4  0
  2  9  1  0
  2 11  4  0
  2 25  4  0
  3 12  4  0
  3 14  1  0
  3 23  4  0
  4 13  4  0
  4 21  4  0
  4 24  1  0
  5  8  4  0
  5 23  4  0
  6 18  2  0
  7 15  4  0
  7 16  1  0
  7 27  4  0
  8 18  1  0
 10 18  1  0
 10 20  1  0
 11 15  4  0
 11 26  1  0
 13 22  4  0
 16 19  1  0
 16 20  2  0
 17 19  4  0
 17 21  4  0
 19 22  4  0
 20 28  1  0
 25 27  4  0
M  END
$$$$

 Created by Python create_sdf_string function

 28 30  0  0  0  0  0  0  0  0999 V2000
   11.4592   11.2893   18.7941 C   0  0  0  0  0  0  0  0  0  0  0  0
    3.4202    7.9009   20.3866 C   0  0  0  0  0  0  0  0  0  0  0  0
   13.5280   10.3522   19.3586 C   0  0  0  0  0  0  0  0  0  0  0  0
    9.6923    5.6468   22.7891 C   0  0  0  0  0  0  0  0  0  0  0  0
   11.7756   10.2554   20.8841 N   0  0  0  0  0  0  0  0  0  0  0  0
    8.9876   11.9370   19.8757 O   0  0  0  0  0  0  0  0  0  0  0  0
    6.0167    8.4478   21.1089 C   0  0  0  0  0  0  0  0  0  0  0  0
   11.0002   10.8890   20.0262 C   0  0  0  0  0  0  0  0  0  0  0  0
    2.1721    7.7393   20.0315 O   0  0  0  0  0  0  0  0  0  0  0  0
    9.1107   10.3880   21.3769 N   0  0  0  0  0  0  0  0  0  0  0  0
    3.9102    9.2008   20.3124 C   0  0  0  0  0  0  0  0  0  0  0  0
   12.7292   10.9960   18.4597 C   0  0  0  0  0  0  0  0  0  0  0  0
    9.3798    6.6793   23.6625 C   0  0  0  0  0  0  0  0  0  0  0  0
   14.7425   10.0739   19.0802 O   0  0  0  0  0  0  0  0  0  0  0  0
    5.1894    9.4673   20.7118 C   0  0  0  0  0  0  0  0  0  0  0  0
    7.3773    8.8224   21.4870 C   0  0  0  0  0  0  0  0  0  0  0  0
    8.4391    6.6439   21.0235 C   0  0  0  0  0  0  0  0  0  0  0  0
    9.6494   11.1353   20.4167 C   0  0  0  0  0  0  0  0  0  0  0  0
    8.1431    7.6829   21.9046 C   0  0  0  0  0  0  0  0  0  0  0  0
    7.7796   10.1314   21.5115 N   0  0  0  0  0  0  0  0  0  0  0  0
    9.2768    5.6183   21.4437 C   0  0  0  0  0  0  0  0  0  0  0  0
    8.6315    7.7322   23.1768 C   0  0  0  0  0  0  0  0  0  0  0  0
   13.0537    9.9821   20.5781 C   0  0  0  0  0  0  0  0  0  0  0  0
   10.3850    4.6575   23.2386 O   0  0  0  0  0  0  0  0  0  0  0  0
    4.2069    6.8450   20.7994 C   0  0  0  0  0  0  0  0  0  0  0  0
    3.0726   10.1043   19.8522 O   0  0  0  0  0  0  0  0  0  0  0  0
    5.5057    7.1196   21.1155 C   0  0  0  0  0  0  0  0  0  0  0  0
    7.0367   11.0229   21.9948 O   0  0  0  0  0  0  0  0  0  0  0  0
  1  8  4  0
  1 12  4  0
  2  9  1  0
  2 11  4  0
  2 25  4  0
  3 12  4  0
  3 14  1  0
  3 23  4  0
  4 13  4  0
  4 21  4  0
  4 24  1  0
  5  8  4  0
  5 23  4  0
  6 18  2  0
  7 15  4  0
  7 16  1  0
  7 27  4  0
  8 18  1  0
 10 18  1  0
 10 20  1  0
 11 15  4  0
 11 26  1  0
 13 22  4  0
 16 19  1  0
 16 20  2  0
 17 19  4  0
 17 21  4  0
 19 22  4  0
 20 28  1  0
 25 27  4  0
M  END
$$$$

 Created by Python create_sdf_string function

 28 30  0  0  0  0  0  0  0  0999 V2000
   11.4592   11.2893   18.7941 C   0  0  0  0  0  0  0  0  0  0  0  0
    3.4202    7.9009   20.3866 C   0  0  0  0  0  0  0  0  0  0  0  0
   13.5280   10.3522   19.3586 C   0  0  0  0  0  0  0  0  0  0  0  0
    9.6923    5.6468   22.7891 C   0  0  0  0  0  0  0  0  0  0  0  0
   11.7756   10.2554   20.8841 N   0  0  0  0  0  0  0  0  0  0  0  0
    8.9876   11.9370   19.8757 O   0  0  0  0  0  0  0  0  0  0  0  0
    6.0167    8.4478   21.1089 C   0  0  0  0  0  0  0  0  0  0  0  0
   11.0002   10.8890   20.0262 C   0  0  0  0  0  0  0  0  0  0  0  0
    2.1721    7.7393   20.0315 O   0  0  0  0  0  0  0  0  0  0  0  0
    9.1107   10.3880   21.3769 N   0  0  0  0  0  0  0  0  0  0  0  0
    3.9102    9.2008   20.3124 C   0  0  0  0  0  0  0  0  0  0  0  0
   12.7292   10.9960   18.4597 C   0  0  0  0  0  0  0  0  0  0  0  0
    9.3798    6.6793   23.6625 C   0  0  0  0  0  0  0  0  0  0  0  0
   14.7425   10.0739   19.0802 O   0  0  0  0  0  0  0  0  0  0  0  0
    5.1894    9.4673   20.7118 C   0  0  0  0  0  0  0  0  0  0  0  0
    7.3773    8.8224   21.4870 C   0  0  0  0  0  0  0  0  0  0  0  0
    8.4391    6.6439   21.0235 C   0  0  0  0  0  0  0  0  0  0  0  0
    9.6494   11.1353   20.4167 C   0  0  0  0  0  0  0  0  0  0  0  0
    8.1431    7.6829   21.9046 C   0  0  0  0  0  0  0  0  0  0  0  0
    7.7796   10.1314   21.5115 N   0  0  0  0  0  0  0  0  0  0  0  0
    9.2768    5.6183   21.4437 C   0  0  0  0  0  0  0  0  0  0  0  0
    8.6315    7.7322   23.1768 C   0  0  0  0  0  0  0  0  0  0  0  0
   13.0537    9.9821   20.5781 C   0  0  0  0  0  0  0  0  0  0  0  0
   10.3850    4.6575   23.2386 O   0  0  0  0  0  0  0  0  0  0  0  0
    4.2069    6.8450   20.7994 C   0  0  0  0  0  0  0  0  0  0  0  0
    3.0726   10.1043   19.8522 O   0  0  0  0  0  0  0  0  0  0  0  0
    5.5057    7.1196   21.1155 C   0  0  0  0  0  0  0  0  0  0  0  0
    7.0367   11.0229   21.9948 O   0  0  0  0  0  0  0  0  0  0  0  0
  1  8  4  0
  1 12  4  0
  2  9  1  0
  2 11  4  0
  2 25  4  0
  3 12  4  0
  3 14  1  0
  3 23  4  0
  4 13  4  0
  4 21  4  0
  4 24  1  0
  5  8  4  0
  5 23  4  0
  6 18  2  0
  7 15  4  0
  7 16  1  0
  7 27  4  0
  8 18  1  0
 10 18  1  0
 10 20  1  0
 11 15  4  0
 11 26  1  0
 13 22  4  0
 16 19  1  0
 16 20  2  0
 17 19  4  0
 17 21  4  0
 19 22  4  0
 20 28  1  0
 25 27  4  0
M  END
$$$$

 Created by Python create_sdf_string function

 28 30  0  0  0  0  0  0  0  0999 V2000
   11.4592   11.2893   18.7941 C   0  0  0  0  0  0  0  0  0  0  0  0
    3.4202    7.9009   20.3866 C   0  0  0  0  0  0  0  0  0  0  0  0
   13.5280   10.3522   19.3586 C   0  0  0  0  0  0  0  0  0  0  0  0
    9.6923    5.6468   22.7891 C   0  0  0  0  0  0  0  0  0  0  0  0
   11.7756   10.2554   20.8841 N   0  0  0  0  0  0  0  0  0  0  0  0
    8.9876   11.9370   19.8757 O   0  0  0  0  0  0  0  0  0  0  0  0
    6.0167    8.4478   21.1089 C   0  0  0  0  0  0  0  0  0  0  0  0
   11.0002   10.8890   20.0262 C   0  0  0  0  0  0  0  0  0  0  0  0
    2.1721    7.7393   20.0315 O   0  0  0  0  0  0  0  0  0  0  0  0
    9.1107   10.3880   21.3769 N   0  0  0  0  0  0  0  0  0  0  0  0
    3.9102    9.2008   20.3124 C   0  0  0  0  0  0  0  0  0  0  0  0
   12.7292   10.9960   18.4597 C   0  0  0  0  0  0  0  0  0  0  0  0
    9.3798    6.6793   23.6625 C   0  0  0  0  0  0  0  0  0  0  0  0
   14.7425   10.0739   19.0802 O   0  0  0  0  0  0  0  0  0  0  0  0
    5.1894    9.4673   20.7118 C   0  0  0  0  0  0  0  0  0  0  0  0
    7.3773    8.8224   21.4870 C   0  0  0  0  0  0  0  0  0  0  0  0
    8.4391    6.6439   21.0235 C   0  0  0  0  0  0  0  0  0  0  0  0
    9.6494   11.1353   20.4167 C   0  0  0  0  0  0  0  0  0  0  0  0
    8.1431    7.6829   21.9046 C   0  0  0  0  0  0  0  0  0  0  0  0
    7.7796   10.1314   21.5115 N   0  0  0  0  0  0  0  0  0  0  0  0
    9.2768    5.6183   21.4437 C   0  0  0  0  0  0  0  0  0  0  0  0
    8.6315    7.7322   23.1768 C   0  0  0  0  0  0  0  0  0  0  0  0
   13.0537    9.9821   20.5781 C   0  0  0  0  0  0  0  0  0  0  0  0
   10.3850    4.6575   23.2386 O   0  0  0  0  0  0  0  0  0  0  0  0
    4.2069    6.8450   20.7994 C   0  0  0  0  0  0  0  0  0  0  0  0
    3.0726   10.1043   19.8522 O   0  0  0  0  0  0  0  0  0  0  0  0
    5.5057    7.1196   21.1155 C   0  0  0  0  0  0  0  0  0  0  0  0
    7.0367   11.0229   21.9948 O   0  0  0  0  0  0  0  0  0  0  0  0
  1  8  4  0
  1 12  4  0
  2  9  1  0
  2 11  4  0
  2 25  4  0
  3 12  4  0
  3 14  1  0
  3 23  4  0
  4 13  4  0
  4 21  4  0
  4 24  1  0
  5  8  4  0
  5 23  4  0
  6 18  2  0
  7 15  4  0
  7 16  1  0
  7 27  4  0
  8 18  1  0
 10 18  1  0
 10 20  1  0
 11 15  4  0
 11 26  1  0
 13 22  4  0
 16 19  1  0
 16 20  2  0
 17 19  4  0
 17 21  4  0
 19 22  4  0
 20 28  1  0
 25 27  4  0
M  END
$$$$

 Created by Python create_sdf_string function

 28 30  0  0  0  0  0  0  0  0999 V2000
   11.4592   11.2893   18.7941 C   0  0  0  0  0  0  0  0  0  0  0  0
    3.4202    7.9009   20.3866 C   0  0  0  0  0  0  0  0  0  0  0  0
   13.5280   10.3522   19.3586 C   0  0  0  0  0  0  0  0  0  0  0  0
    9.6923    5.6468   22.7891 C   0  0  0  0  0  0  0  0  0  0  0  0
   11.7756   10.2554   20.8841 N   0  0  0  0  0  0  0  0  0  0  0  0
    8.9876   11.9370   19.8757 O   0  0  0  0  0  0  0  0  0  0  0  0
    6.0167    8.4478   21.1089 C   0  0  0  0  0  0  0  0  0  0  0  0
   11.0002   10.8890   20.0262 C   0  0  0  0  0  0  0  0  0  0  0  0
    2.1721    7.7393   20.0315 O   0  0  0  0  0  0  0  0  0  0  0  0
    9.1107   10.3880   21.3769 N   0  0  0  0  0  0  0  0  0  0  0  0
    3.9102    9.2008   20.3124 C   0  0  0  0  0  0  0  0  0  0  0  0
   12.7292   10.9960   18.4597 C   0  0  0  0  0  0  0  0  0  0  0  0
    9.3798    6.6793   23.6625 C   0  0  0  0  0  0  0  0  0  0  0  0
   14.7425   10.0739   19.0802 O   0  0  0  0  0  0  0  0  0  0  0  0
    5.1894    9.4673   20.7118 C   0  0  0  0  0  0  0  0  0  0  0  0
    7.3773    8.8224   21.4870 C   0  0  0  0  0  0  0  0  0  0  0  0
    8.4391    6.6439   21.0235 C   0  0  0  0  0  0  0  0  0  0  0  0
    9.6494   11.1353   20.4167 C   0  0  0  0  0  0  0  0  0  0  0  0
    8.1431    7.6829   21.9046 C   0  0  0  0  0  0  0  0  0  0  0  0
    7.7796   10.1314   21.5115 N   0  0  0  0  0  0  0  0  0  0  0  0
    9.2768    5.6183   21.4437 C   0  0  0  0  0  0  0  0  0  0  0  0
    8.6315    7.7322   23.1768 C   0  0  0  0  0  0  0  0  0  0  0  0
   13.0537    9.9821   20.5781 C   0  0  0  0  0  0  0  0  0  0  0  0
   10.3850    4.6575   23.2386 O   0  0  0  0  0  0  0  0  0  0  0  0
    4.2069    6.8450   20.7994 C   0  0  0  0  0  0  0  0  0  0  0  0
    3.0726   10.1043   19.8522 O   0  0  0  0  0  0  0  0  0  0  0  0
    5.5057    7.1196   21.1155 C   0  0  0  0  0  0  0  0  0  0  0  0
    7.0367   11.0229   21.9948 O   0  0  0  0  0  0  0  0  0  0  0  0
  1  8  4  0
  1 12  4  0
  2  9  1  0
  2 11  4  0
  2 25  4  0
  3 12  4  0
  3 14  1  0
  3 23  4  0
  4 13  4  0
  4 21  4  0
  4 24  1  0
  5  8  4  0
  5 23  4  0
  6 18  2  0
  7 15  4  0
  7 16  1  0
  7 27  4  0
  8 18  1  0
 10 18  1  0
 10 20  1  0
 11 15  4  0
 11 26  1  0
 13 22  4  0
 16 19  1  0
 16 20  2  0
 17 19  4  0
 17 21  4  0
 19 22  4  0
 20 28  1  0
 25 27  4  0
M  END
$$$$

 Created by Python create_sdf_string function

 28 30  0  0  0  0  0  0  0  0999 V2000
   11.4592   11.2893   18.7941 C   0  0  0  0  0  0  0  0  0  0  0  0
    3.4202    7.9009   20.3866 C   0  0  0  0  0  0  0  0  0  0  0  0
   13.5280   10.3522   19.3586 C   0  0  0  0  0  0  0  0  0  0  0  0
    9.6923    5.6468   22.7891 C   0  0  0  0  0  0  0  0  0  0  0  0
   11.7756   10.2554   20.8841 N   0  0  0  0  0  0  0  0  0  0  0  0
    8.9876   11.9370   19.8757 O   0  0  0  0  0  0  0  0  0  0  0  0
    6.0167    8.4478   21.1089 C   0  0  0  0  0  0  0  0  0  0  0  0
   11.0002   10.8890   20.0262 C   0  0  0  0  0  0  0  0  0  0  0  0
    2.1721    7.7393   20.0315 O   0  0  0  0  0  0  0  0  0  0  0  0
    9.1107   10.3880   21.3769 N   0  0  0  0  0  0  0  0  0  0  0  0
    3.9102    9.2008   20.3124 C   0  0  0  0  0  0  0  0  0  0  0  0
   12.7292   10.9960   18.4597 C   0  0  0  0  0  0  0  0  0  0  0  0
    9.3798    6.6793   23.6625 C   0  0  0  0  0  0  0  0  0  0  0  0
   14.7425   10.0739   19.0802 O   0  0  0  0  0  0  0  0  0  0  0  0
    5.1894    9.4673   20.7118 C   0  0  0  0  0  0  0  0  0  0  0  0
    7.3773    8.8224   21.4870 C   0  0  0  0  0  0  0  0  0  0  0  0
    8.4391    6.6439   21.0235 C   0  0  0  0  0  0  0  0  0  0  0  0
    9.6494   11.1353   20.4167 C   0  0  0  0  0  0  0  0  0  0  0  0
    8.1431    7.6829   21.9046 C   0  0  0  0  0  0  0  0  0  0  0  0
    7.7796   10.1314   21.5115 N   0  0  0  0  0  0  0  0  0  0  0  0
    9.2768    5.6183   21.4437 C   0  0  0  0  0  0  0  0  0  0  0  0
    8.6315    7.7322   23.1768 C   0  0  0  0  0  0  0  0  0  0  0  0
   13.0537    9.9821   20.5781 C   0  0  0  0  0  0  0  0  0  0  0  0
   10.3850    4.6575   23.2386 O   0  0  0  0  0  0  0  0  0  0  0  0
    4.2069    6.8450   20.7994 C   0  0  0  0  0  0  0  0  0  0  0  0
    3.0726   10.1043   19.8522 O   0  0  0  0  0  0  0  0  0  0  0  0
    5.5057    7.1196   21.1155 C   0  0  0  0  0  0  0  0  0  0  0  0
    7.0367   11.0229   21.9948 O   0  0  0  0  0  0  0  0  0  0  0  0
  1  8  4  0
  1 12  4  0
  2  9  1  0
  2 11  4  0
  2 25  4  0
  3 12  4  0
  3 14  1  0
  3 23  4  0
  4 13  4  0
  4 21  4  0
  4 24  1  0
  5  8  4  0
  5 23  4  0
  6 18  2  0
  7 15  4  0
  7 16  1  0
  7 27  4  0
  8 18  1  0
 10 18  1  0
 10 20  1  0
 11 15  4  0
 11 26  1  0
 13 22  4  0
 16 19  1  0
 16 20  2  0
 17 19  4  0
 17 21  4  0
 19 22  4  0
 20 28  1  0
 25 27  4  0
M  END
$$$$

 Created by Python create_sdf_string function

 28 30  0  0  0  0  0  0  0  0999 V2000
   11.4592   11.2893   18.7941 C   0  0  0  0  0  0  0  0  0  0  0  0
    3.4202    7.9009   20.3866 C   0  0  0  0  0  0  0  0  0  0  0  0
   13.5280   10.3522   19.3586 C   0  0  0  0  0  0  0  0  0  0  0  0
    9.6923    5.6468   22.7891 C   0  0  0  0  0  0  0  0  0  0  0  0
   11.7756   10.2554   20.8841 N   0  0  0  0  0  0  0  0  0  0  0  0
    8.9876   11.9370   19.8757 O   0  0  0  0  0  0  0  0  0  0  0  0
    6.0167    8.4478   21.1089 C   0  0  0  0  0  0  0  0  0  0  0  0
   11.0002   10.8890   20.0262 C   0  0  0  0  0  0  0  0  0  0  0  0
    2.1721    7.7393   20.0315 O   0  0  0  0  0  0  0  0  0  0  0  0
    9.1107   10.3880   21.3769 N   0  0  0  0  0  0  0  0  0  0  0  0
    3.9102    9.2008   20.3124 C   0  0  0  0  0  0  0  0  0  0  0  0
   12.7292   10.9960   18.4597 C   0  0  0  0  0  0  0  0  0  0  0  0
    9.3798    6.6793   23.6625 C   0  0  0  0  0  0  0  0  0  0  0  0
   14.7425   10.0739   19.0802 O   0  0  0  0  0  0  0  0  0  0  0  0
    5.1894    9.4673   20.7118 C   0  0  0  0  0  0  0  0  0  0  0  0
    7.3773    8.8224   21.4870 C   0  0  0  0  0  0  0  0  0  0  0  0
    8.4391    6.6439   21.0235 C   0  0  0  0  0  0  0  0  0  0  0  0
    9.6494   11.1353   20.4167 C   0  0  0  0  0  0  0  0  0  0  0  0
    8.1431    7.6829   21.9046 C   0  0  0  0  0  0  0  0  0  0  0  0
    7.7796   10.1314   21.5115 N   0  0  0  0  0  0  0  0  0  0  0  0
    9.2768    5.6183   21.4437 C   0  0  0  0  0  0  0  0  0  0  0  0
    8.6315    7.7322   23.1768 C   0  0  0  0  0  0  0  0  0  0  0  0
   13.0537    9.9821   20.5781 C   0  0  0  0  0  0  0  0  0  0  0  0
   10.3850    4.6575   23.2386 O   0  0  0  0  0  0  0  0  0  0  0  0
    4.2069    6.8450   20.7994 C   0  0  0  0  0  0  0  0  0  0  0  0
    3.0726   10.1043   19.8522 O   0  0  0  0  0  0  0  0  0  0  0  0
    5.5057    7.1196   21.1155 C   0  0  0  0  0  0  0  0  0  0  0  0
    7.0367   11.0229   21.9948 O   0  0  0  0  0  0  0  0  0  0  0  0
  1  8  4  0
  1 12  4  0
  2  9  1  0
  2 11  4  0
  2 25  4  0
  3 12  4  0
  3 14  1  0
  3 23  4  0
  4 13  4  0
  4 21  4  0
  4 24  1  0
  5  8  4  0
  5 23  4  0
  6 18  2  0
  7 15  4  0
  7 16  1  0
  7 27  4  0
  8 18  1  0
 10 18  1  0
 10 20  1  0
 11 15  4  0
 11 26  1  0
 13 22  4  0
 16 19  1  0
 16 20  2  0
 17 19  4  0
 17 21  4  0
 19 22  4  0
 20 28  1  0
 25 27  4  0
M  END
$$$$

 Created by Python create_sdf_string function

 28 30  0  0  0  0  0  0  0  0999 V2000
   11.4592   11.2893   18.7941 C   0  0  0  0  0  0  0  0  0  0  0  0
    3.4202    7.9009   20.3866 C   0  0  0  0  0  0  0  0  0  0  0  0
   13.5280   10.3522   19.3586 C   0  0  0  0  0  0  0  0  0  0  0  0
    9.6923    5.6468   22.7891 C   0  0  0  0  0  0  0  0  0  0  0  0
   11.7756   10.2554   20.8841 N   0  0  0  0  0  0  0  0  0  0  0  0
    8.9876   11.9370   19.8757 O   0  0  0  0  0  0  0  0  0  0  0  0
    6.0167    8.4478   21.1089 C   0  0  0  0  0  0  0  0  0  0  0  0
   11.0002   10.8890   20.0262 C   0  0  0  0  0  0  0  0  0  0  0  0
    2.1721    7.7393   20.0315 O   0  0  0  0  0  0  0  0  0  0  0  0
    9.1107   10.3880   21.3769 N   0  0  0  0  0  0  0  0  0  0  0  0
    3.9102    9.2008   20.3124 C   0  0  0  0  0  0  0  0  0  0  0  0
   12.7292   10.9960   18.4597 C   0  0  0  0  0  0  0  0  0  0  0  0
    9.3798    6.6793   23.6625 C   0  0  0  0  0  0  0  0  0  0  0  0
   14.7425   10.0739   19.0802 O   0  0  0  0  0  0  0  0  0  0  0  0
    5.1894    9.4673   20.7118 C   0  0  0  0  0  0  0  0  0  0  0  0
    7.3773    8.8224   21.4870 C   0  0  0  0  0  0  0  0  0  0  0  0
    8.4391    6.6439   21.0235 C   0  0  0  0  0  0  0  0  0  0  0  0
    9.6494   11.1353   20.4167 C   0  0  0  0  0  0  0  0  0  0  0  0
    8.1431    7.6829   21.9046 C   0  0  0  0  0  0  0  0  0  0  0  0
    7.7796   10.1314   21.5115 N   0  0  0  0  0  0  0  0  0  0  0  0
    9.2768    5.6183   21.4437 C   0  0  0  0  0  0  0  0  0  0  0  0
    8.6315    7.7322   23.1768 C   0  0  0  0  0  0  0  0  0  0  0  0
   13.0537    9.9821   20.5781 C   0  0  0  0  0  0  0  0  0  0  0  0
   10.3850    4.6575   23.2386 O   0  0  0  0  0  0  0  0  0  0  0  0
    4.2069    6.8450   20.7994 C   0  0  0  0  0  0  0  0  0  0  0  0
    3.0726   10.1043   19.8522 O   0  0  0  0  0  0  0  0  0  0  0  0
    5.5057    7.1196   21.1155 C   0  0  0  0  0  0  0  0  0  0  0  0
    7.0367   11.0229   21.9948 O   0  0  0  0  0  0  0  0  0  0  0  0
  1  8  4  0
  1 12  4  0
  2  9  1  0
  2 11  4  0
  2 25  4  0
  3 12  4  0
  3 14  1  0
  3 23  4  0
  4 13  4  0
  4 21  4  0
  4 24  1  0
  5  8  4  0
  5 23  4  0
  6 18  2  0
  7 15  4  0
  7 16  1  0
  7 27  4  0
  8 18  1  0
 10 18  1  0
 10 20  1  0
 11 15  4  0
 11 26  1  0
 13 22  4  0
 16 19  1  0
 16 20  2  0
 17 19  4  0
 17 21  4  0
 19 22  4  0
 20 28  1  0
 25 27  4  0
M  END
$$$$

 Created by Python create_sdf_string function

 28 30  0  0  0  0  0  0  0  0999 V2000
   11.4592   11.2893   18.7941 C   0  0  0  0  0  0  0  0  0  0  0  0
    3.4202    7.9009   20.3866 C   0  0  0  0  0  0  0  0  0  0  0  0
   13.5280   10.3522   19.3586 C   0  0  0  0  0  0  0  0  0  0  0  0
    9.6923    5.6468   22.7891 C   0  0  0  0  0  0  0  0  0  0  0  0
   11.7756   10.2554   20.8841 N   0  0  0  0  0  0  0  0  0  0  0  0
    8.9876   11.9370   19.8757 O   0  0  0  0  0  0  0  0  0  0  0  0
    6.0167    8.4478   21.1089 C   0  0  0  0  0  0  0  0  0  0  0  0
   11.0002   10.8890   20.0262 C   0  0  0  0  0  0  0  0  0  0  0  0
    2.1721    7.7393   20.0315 O   0  0  0  0  0  0  0  0  0  0  0  0
    9.1107   10.3880   21.3769 N   0  0  0  0  0  0  0  0  0  0  0  0
    3.9102    9.2008   20.3124 C   0  0  0  0  0  0  0  0  0  0  0  0
   12.7292   10.9960   18.4597 C   0  0  0  0  0  0  0  0  0  0  0  0
    9.3798    6.6793   23.6625 C   0  0  0  0  0  0  0  0  0  0  0  0
   14.7425   10.0739   19.0802 O   0  0  0  0  0  0  0  0  0  0  0  0
    5.1894    9.4673   20.7118 C   0  0  0  0  0  0  0  0  0  0  0  0
    7.3773    8.8224   21.4870 C   0  0  0  0  0  0  0  0  0  0  0  0
    8.4391    6.6439   21.0235 C   0  0  0  0  0  0  0  0  0  0  0  0
    9.6494   11.1353   20.4167 C   0  0  0  0  0  0  0  0  0  0  0  0
    8.1431    7.6829   21.9046 C   0  0  0  0  0  0  0  0  0  0  0  0
    7.7796   10.1314   21.5115 N   0  0  0  0  0  0  0  0  0  0  0  0
    9.2768    5.6183   21.4437 C   0  0  0  0  0  0  0  0  0  0  0  0
    8.6315    7.7322   23.1768 C   0  0  0  0  0  0  0  0  0  0  0  0
   13.0537    9.9821   20.5781 C   0  0  0  0  0  0  0  0  0  0  0  0
   10.3850    4.6575   23.2386 O   0  0  0  0  0  0  0  0  0  0  0  0
    4.2069    6.8450   20.7994 C   0  0  0  0  0  0  0  0  0  0  0  0
    3.0726   10.1043   19.8522 O   0  0  0  0  0  0  0  0  0  0  0  0
    5.5057    7.1196   21.1155 C   0  0  0  0  0  0  0  0  0  0  0  0
    7.0367   11.0229   21.9948 O   0  0  0  0  0  0  0  0  0  0  0  0
  1  8  4  0
  1 12  4  0
  2  9  1  0
  2 11  4  0
  2 25  4  0
  3 12  4  0
  3 14  1  0
  3 23  4  0
  4 13  4  0
  4 21  4  0
  4 24  1  0
  5  8  4  0
  5 23  4  0
  6 18  2  0
  7 15  4  0
  7 16  1  0
  7 27  4  0
  8 18  1  0
 10 18  1  0
 10 20  1  0
 11 15  4  0
 11 26  1  0
 13 22  4  0
 16 19  1  0
 16 20  2  0
 17 19  4  0
 17 21  4  0
 19 22  4  0
 20 28  1  0
 25 27  4  0
M  END
$$$$

 Created by Python create_sdf_string function

 28 30  0  0  0  0  0  0  0  0999 V2000
   11.4592   11.2893   18.7941 C   0  0  0  0  0  0  0  0  0  0  0  0
    3.4202    7.9009   20.3866 C   0  0  0  0  0  0  0  0  0  0  0  0
   13.5280   10.3522   19.3586 C   0  0  0  0  0  0  0  0  0  0  0  0
    9.6923    5.6468   22.7891 C   0  0  0  0  0  0  0  0  0  0  0  0
   11.7756   10.2554   20.8841 N   0  0  0  0  0  0  0  0  0  0  0  0
    8.9876   11.9370   19.8757 O   0  0  0  0  0  0  0  0  0  0  0  0
    6.0167    8.4478   21.1089 C   0  0  0  0  0  0  0  0  0  0  0  0
   11.0002   10.8890   20.0262 C   0  0  0  0  0  0  0  0  0  0  0  0
    2.1721    7.7393   20.0315 O   0  0  0  0  0  0  0  0  0  0  0  0
    9.1107   10.3880   21.3769 N   0  0  0  0  0  0  0  0  0  0  0  0
    3.9102    9.2008   20.3124 C   0  0  0  0  0  0  0  0  0  0  0  0
   12.7292   10.9960   18.4597 C   0  0  0  0  0  0  0  0  0  0  0  0
    9.3798    6.6793   23.6625 C   0  0  0  0  0  0  0  0  0  0  0  0
   14.7425   10.0739   19.0802 O   0  0  0  0  0  0  0  0  0  0  0  0
    5.1894    9.4673   20.7118 C   0  0  0  0  0  0  0  0  0  0  0  0
    7.3773    8.8224   21.4870 C   0  0  0  0  0  0  0  0  0  0  0  0
    8.4391    6.6439   21.0235 C   0  0  0  0  0  0  0  0  0  0  0  0
    9.6494   11.1353   20.4167 C   0  0  0  0  0  0  0  0  0  0  0  0
    8.1431    7.6829   21.9046 C   0  0  0  0  0  0  0  0  0  0  0  0
    7.7796   10.1314   21.5115 N   0  0  0  0  0  0  0  0  0  0  0  0
    9.2768    5.6183   21.4437 C   0  0  0  0  0  0  0  0  0  0  0  0
    8.6315    7.7322   23.1768 C   0  0  0  0  0  0  0  0  0  0  0  0
   13.0537    9.9821   20.5781 C   0  0  0  0  0  0  0  0  0  0  0  0
   10.3850    4.6575   23.2386 O   0  0  0  0  0  0  0  0  0  0  0  0
    4.2069    6.8450   20.7994 C   0  0  0  0  0  0  0  0  0  0  0  0
    3.0726   10.1043   19.8522 O   0  0  0  0  0  0  0  0  0  0  0  0
    5.5057    7.1196   21.1155 C   0  0  0  0  0  0  0  0  0  0  0  0
    7.0367   11.0229   21.9948 O   0  0  0  0  0  0  0  0  0  0  0  0
  1  8  4  0
  1 12  4  0
  2  9  1  0
  2 11  4  0
  2 25  4  0
  3 12  4  0
  3 14  1  0
  3 23  4  0
  4 13  4  0
  4 21  4  0
  4 24  1  0
  5  8  4  0
  5 23  4  0
  6 18  2  0
  7 15  4  0
  7 16  1  0
  7 27  4  0
  8 18  1  0
 10 18  1  0
 10 20  1  0
 11 15  4  0
 11 26  1  0
 13 22  4  0
 16 19  1  0
 16 20  2  0
 17 19  4  0
 17 21  4  0
 19 22  4  0
 20 28  1  0
 25 27  4  0
M  END
$$$$

 Created by Python create_sdf_string function

 28 30  0  0  0  0  0  0  0  0999 V2000
   11.4592   11.2893   18.7941 C   0  0  0  0  0  0  0  0  0  0  0  0
    3.4202    7.9009   20.3866 C   0  0  0  0  0  0  0  0  0  0  0  0
   13.5280   10.3522   19.3586 C   0  0  0  0  0  0  0  0  0  0  0  0
    9.6923    5.6468   22.7891 C   0  0  0  0  0  0  0  0  0  0  0  0
   11.7756   10.2554   20.8841 N   0  0  0  0  0  0  0  0  0  0  0  0
    8.9876   11.9370   19.8757 O   0  0  0  0  0  0  0  0  0  0  0  0
    6.0167    8.4478   21.1089 C   0  0  0  0  0  0  0  0  0  0  0  0
   11.0002   10.8890   20.0262 C   0  0  0  0  0  0  0  0  0  0  0  0
    2.1721    7.7393   20.0315 O   0  0  0  0  0  0  0  0  0  0  0  0
    9.1107   10.3880   21.3769 N   0  0  0  0  0  0  0  0  0  0  0  0
    3.9102    9.2008   20.3124 C   0  0  0  0  0  0  0  0  0  0  0  0
   12.7292   10.9960   18.4597 C   0  0  0  0  0  0  0  0  0  0  0  0
    9.3798    6.6793   23.6625 C   0  0  0  0  0  0  0  0  0  0  0  0
   14.7425   10.0739   19.0802 O   0  0  0  0  0  0  0  0  0  0  0  0
    5.1894    9.4673   20.7118 C   0  0  0  0  0  0  0  0  0  0  0  0
    7.3773    8.8224   21.4870 C   0  0  0  0  0  0  0  0  0  0  0  0
    8.4391    6.6439   21.0235 C   0  0  0  0  0  0  0  0  0  0  0  0
    9.6494   11.1353   20.4167 C   0  0  0  0  0  0  0  0  0  0  0  0
    8.1431    7.6829   21.9046 C   0  0  0  0  0  0  0  0  0  0  0  0
    7.7796   10.1314   21.5115 N   0  0  0  0  0  0  0  0  0  0  0  0
    9.2768    5.6183   21.4437 C   0  0  0  0  0  0  0  0  0  0  0  0
    8.6315    7.7322   23.1768 C   0  0  0  0  0  0  0  0  0  0  0  0
   13.0537    9.9821   20.5781 C   0  0  0  0  0  0  0  0  0  0  0  0
   10.3850    4.6575   23.2386 O   0  0  0  0  0  0  0  0  0  0  0  0
    4.2069    6.8450   20.7994 C   0  0  0  0  0  0  0  0  0  0  0  0
    3.0726   10.1043   19.8522 O   0  0  0  0  0  0  0  0  0  0  0  0
    5.5057    7.1196   21.1155 C   0  0  0  0  0  0  0  0  0  0  0  0
    7.0367   11.0229   21.9948 O   0  0  0  0  0  0  0  0  0  0  0  0
  1  8  4  0
  1 12  4  0
  2  9  1  0
  2 11  4  0
  2 25  4  0
  3 12  4  0
  3 14  1  0
  3 23  4  0
  4 13  4  0
  4 21  4  0
  4 24  1  0
  5  8  4  0
  5 23  4  0
  6 18  2  0
  7 15  4  0
  7 16  1  0
  7 27  4  0
  8 18  1  0
 10 18  1  0
 10 20  1  0
 11 15  4  0
 11 26  1  0
 13 22  4  0
 16 19  1  0
 16 20  2  0
 17 19  4  0
 17 21  4  0
 19 22  4  0
 20 28  1  0
 25 27  4  0
M  END
$$$$

 Created by Python create_sdf_string function

 28 30  0  0  0  0  0  0  0  0999 V2000
   11.4592   11.2893   18.7941 C   0  0  0  0  0  0  0  0  0  0  0  0
    3.4202    7.9009   20.3866 C   0  0  0  0  0  0  0  0  0  0  0  0
   13.5280   10.3522   19.3586 C   0  0  0  0  0  0  0  0  0  0  0  0
    9.6923    5.6468   22.7891 C   0  0  0  0  0  0  0  0  0  0  0  0
   11.7756   10.2554   20.8841 N   0  0  0  0  0  0  0  0  0  0  0  0
    8.9876   11.9370   19.8757 O   0  0  0  0  0  0  0  0  0  0  0  0
    6.0167    8.4478   21.1089 C   0  0  0  0  0  0  0  0  0  0  0  0
   11.0002   10.8890   20.0262 C   0  0  0  0  0  0  0  0  0  0  0  0
    2.1721    7.7393   20.0315 O   0  0  0  0  0  0  0  0  0  0  0  0
    9.1107   10.3880   21.3769 N   0  0  0  0  0  0  0  0  0  0  0  0
    3.9102    9.2008   20.3124 C   0  0  0  0  0  0  0  0  0  0  0  0
   12.7292   10.9960   18.4597 C   0  0  0  0  0  0  0  0  0  0  0  0
    9.3798    6.6793   23.6625 C   0  0  0  0  0  0  0  0  0  0  0  0
   14.7425   10.0739   19.0802 O   0  0  0  0  0  0  0  0  0  0  0  0
    5.1894    9.4673   20.7118 C   0  0  0  0  0  0  0  0  0  0  0  0
    7.3773    8.8224   21.4870 C   0  0  0  0  0  0  0  0  0  0  0  0
    8.4391    6.6439   21.0235 C   0  0  0  0  0  0  0  0  0  0  0  0
    9.6494   11.1353   20.4167 C   0  0  0  0  0  0  0  0  0  0  0  0
    8.1431    7.6829   21.9046 C   0  0  0  0  0  0  0  0  0  0  0  0
    7.7796   10.1314   21.5115 N   0  0  0  0  0  0  0  0  0  0  0  0
    9.2768    5.6183   21.4437 C   0  0  0  0  0  0  0  0  0  0  0  0
    8.6315    7.7322   23.1768 C   0  0  0  0  0  0  0  0  0  0  0  0
   13.0537    9.9821   20.5781 C   0  0  0  0  0  0  0  0  0  0  0  0
   10.3850    4.6575   23.2386 O   0  0  0  0  0  0  0  0  0  0  0  0
    4.2069    6.8450   20.7994 C   0  0  0  0  0  0  0  0  0  0  0  0
    3.0726   10.1043   19.8522 O   0  0  0  0  0  0  0  0  0  0  0  0
    5.5057    7.1196   21.1155 C   0  0  0  0  0  0  0  0  0  0  0  0
    7.0367   11.0229   21.9948 O   0  0  0  0  0  0  0  0  0  0  0  0
  1  8  4  0
  1 12  4  0
  2  9  1  0
  2 11  4  0
  2 25  4  0
  3 12  4  0
  3 14  1  0
  3 23  4  0
  4 13  4  0
  4 21  4  0
  4 24  1  0
  5  8  4  0
  5 23  4  0
  6 18  2  0
  7 15  4  0
  7 16  1  0
  7 27  4  0
  8 18  1  0
 10 18  1  0
 10 20  1  0
 11 15  4  0
 11 26  1  0
 13 22  4  0
 16 19  1  0
 16 20  2  0
 17 19  4  0
 17 21  4  0
 19 22  4  0
 20 28  1  0
 25 27  4  0
M  END
$$$$

 Created by Python create_sdf_string function

 28 30  0  0  0  0  0  0  0  0999 V2000
   11.4592   11.2893   18.7941 C   0  0  0  0  0  0  0  0  0  0  0  0
    3.4202    7.9009   20.3866 C   0  0  0  0  0  0  0  0  0  0  0  0
   13.5280   10.3522   19.3586 C   0  0  0  0  0  0  0  0  0  0  0  0
    9.6923    5.6468   22.7891 C   0  0  0  0  0  0  0  0  0  0  0  0
   11.7756   10.2554   20.8841 N   0  0  0  0  0  0  0  0  0  0  0  0
    8.9876   11.9370   19.8757 O   0  0  0  0  0  0  0  0  0  0  0  0
    6.0167    8.4478   21.1089 C   0  0  0  0  0  0  0  0  0  0  0  0
   11.0002   10.8890   20.0262 C   0  0  0  0  0  0  0  0  0  0  0  0
    2.1721    7.7393   20.0315 O   0  0  0  0  0  0  0  0  0  0  0  0
    9.1107   10.3880   21.3769 N   0  0  0  0  0  0  0  0  0  0  0  0
    3.9102    9.2008   20.3124 C   0  0  0  0  0  0  0  0  0  0  0  0
   12.7292   10.9960   18.4597 C   0  0  0  0  0  0  0  0  0  0  0  0
    9.3798    6.6793   23.6625 C   0  0  0  0  0  0  0  0  0  0  0  0
   14.7425   10.0739   19.0802 O   0  0  0  0  0  0  0  0  0  0  0  0
    5.1894    9.4673   20.7118 C   0  0  0  0  0  0  0  0  0  0  0  0
    7.3773    8.8224   21.4870 C   0  0  0  0  0  0  0  0  0  0  0  0
    8.4391    6.6439   21.0235 C   0  0  0  0  0  0  0  0  0  0  0  0
    9.6494   11.1353   20.4167 C   0  0  0  0  0  0  0  0  0  0  0  0
    8.1431    7.6829   21.9046 C   0  0  0  0  0  0  0  0  0  0  0  0
    7.7796   10.1314   21.5115 N   0  0  0  0  0  0  0  0  0  0  0  0
    9.2768    5.6183   21.4437 C   0  0  0  0  0  0  0  0  0  0  0  0
    8.6315    7.7322   23.1768 C   0  0  0  0  0  0  0  0  0  0  0  0
   13.0537    9.9821   20.5781 C   0  0  0  0  0  0  0  0  0  0  0  0
   10.3850    4.6575   23.2386 O   0  0  0  0  0  0  0  0  0  0  0  0
    4.2069    6.8450   20.7994 C   0  0  0  0  0  0  0  0  0  0  0  0
    3.0726   10.1043   19.8522 O   0  0  0  0  0  0  0  0  0  0  0  0
    5.5057    7.1196   21.1155 C   0  0  0  0  0  0  0  0  0  0  0  0
    7.0367   11.0229   21.9948 O   0  0  0  0  0  0  0  0  0  0  0  0
  1  8  4  0
  1 12  4  0
  2  9  1  0
  2 11  4  0
  2 25  4  0
  3 12  4  0
  3 14  1  0
  3 23  4  0
  4 13  4  0
  4 21  4  0
  4 24  1  0
  5  8  4  0
  5 23  4  0
  6 18  2  0
  7 15  4  0
  7 16  1  0
  7 27  4  0
  8 18  1  0
 10 18  1  0
 10 20  1  0
 11 15  4  0
 11 26  1  0
 13 22  4  0
 16 19  1  0
 16 20  2  0
 17 19  4  0
 17 21  4  0
 19 22  4  0
 20 28  1  0
 25 27  4  0
M  END
$$$$

 Created by Python create_sdf_string function

 28 30  0  0  0  0  0  0  0  0999 V2000
   11.4592   11.2893   18.7941 C   0  0  0  0  0  0  0  0  0  0  0  0
    3.4202    7.9009   20.3866 C   0  0  0  0  0  0  0  0  0  0  0  0
   13.5280   10.3522   19.3586 C   0  0  0  0  0  0  0  0  0  0  0  0
    9.6923    5.6468   22.7891 C   0  0  0  0  0  0  0  0  0  0  0  0
   11.7756   10.2554   20.8841 N   0  0  0  0  0  0  0  0  0  0  0  0
    8.9876   11.9370   19.8757 O   0  0  0  0  0  0  0  0  0  0  0  0
    6.0167    8.4478   21.1089 C   0  0  0  0  0  0  0  0  0  0  0  0
   11.0002   10.8890   20.0262 C   0  0  0  0  0  0  0  0  0  0  0  0
    2.1721    7.7393   20.0315 O   0  0  0  0  0  0  0  0  0  0  0  0
    9.1107   10.3880   21.3769 N   0  0  0  0  0  0  0  0  0  0  0  0
    3.9102    9.2008   20.3124 C   0  0  0  0  0  0  0  0  0  0  0  0
   12.7292   10.9960   18.4597 C   0  0  0  0  0  0  0  0  0  0  0  0
    9.3798    6.6793   23.6625 C   0  0  0  0  0  0  0  0  0  0  0  0
   14.7425   10.0739   19.0802 O   0  0  0  0  0  0  0  0  0  0  0  0
    5.1894    9.4673   20.7118 C   0  0  0  0  0  0  0  0  0  0  0  0
    7.3773    8.8224   21.4870 C   0  0  0  0  0  0  0  0  0  0  0  0
    8.4391    6.6439   21.0235 C   0  0  0  0  0  0  0  0  0  0  0  0
    9.6494   11.1353   20.4167 C   0  0  0  0  0  0  0  0  0  0  0  0
    8.1431    7.6829   21.9046 C   0  0  0  0  0  0  0  0  0  0  0  0
    7.7796   10.1314   21.5115 N   0  0  0  0  0  0  0  0  0  0  0  0
    9.2768    5.6183   21.4437 C   0  0  0  0  0  0  0  0  0  0  0  0
    8.6315    7.7322   23.1768 C   0  0  0  0  0  0  0  0  0  0  0  0
   13.0537    9.9821   20.5781 C   0  0  0  0  0  0  0  0  0  0  0  0
   10.3850    4.6575   23.2386 O   0  0  0  0  0  0  0  0  0  0  0  0
    4.2069    6.8450   20.7994 C   0  0  0  0  0  0  0  0  0  0  0  0
    3.0726   10.1043   19.8522 O   0  0  0  0  0  0  0  0  0  0  0  0
    5.5057    7.1196   21.1155 C   0  0  0  0  0  0  0  0  0  0  0  0
    7.0367   11.0229   21.9948 O   0  0  0  0  0  0  0  0  0  0  0  0
  1  8  4  0
  1 12  4  0
  2  9  1  0
  2 11  4  0
  2 25  4  0
  3 12  4  0
  3 14  1  0
  3 23  4  0
  4 13  4  0
  4 21  4  0
  4 24  1  0
  5  8  4  0
  5 23  4  0
  6 18  2  0
  7 15  4  0
  7 16  1  0
  7 27  4  0
  8 18  1  0
 10 18  1  0
 10 20  1  0
 11 15  4  0
 11 26  1  0
 13 22  4  0
 16 19  1  0
 16 20  2  0
 17 19  4  0
 17 21  4  0
 19 22  4  0
 20 28  1  0
 25 27  4  0
M  END
$$$$

 Created by Python create_sdf_string function

 28 30  0  0  0  0  0  0  0  0999 V2000
   11.4592   11.2893   18.7941 C   0  0  0  0  0  0  0  0  0  0  0  0
    3.4202    7.9009   20.3866 C   0  0  0  0  0  0  0  0  0  0  0  0
   13.5280   10.3522   19.3586 C   0  0  0  0  0  0  0  0  0  0  0  0
    9.6923    5.6468   22.7891 C   0  0  0  0  0  0  0  0  0  0  0  0
   11.7756   10.2554   20.8841 N   0  0  0  0  0  0  0  0  0  0  0  0
    8.9876   11.9370   19.8757 O   0  0  0  0  0  0  0  0  0  0  0  0
    6.0167    8.4478   21.1089 C   0  0  0  0  0  0  0  0  0  0  0  0
   11.0002   10.8890   20.0262 C   0  0  0  0  0  0  0  0  0  0  0  0
    2.1721    7.7393   20.0315 O   0  0  0  0  0  0  0  0  0  0  0  0
    9.1107   10.3880   21.3769 N   0  0  0  0  0  0  0  0  0  0  0  0
    3.9102    9.2008   20.3124 C   0  0  0  0  0  0  0  0  0  0  0  0
   12.7292   10.9960   18.4597 C   0  0  0  0  0  0  0  0  0  0  0  0
    9.3798    6.6793   23.6625 C   0  0  0  0  0  0  0  0  0  0  0  0
   14.7425   10.0739   19.0802 O   0  0  0  0  0  0  0  0  0  0  0  0
    5.1894    9.4673   20.7118 C   0  0  0  0  0  0  0  0  0  0  0  0
    7.3773    8.8224   21.4870 C   0  0  0  0  0  0  0  0  0  0  0  0
    8.4391    6.6439   21.0235 C   0  0  0  0  0  0  0  0  0  0  0  0
    9.6494   11.1353   20.4167 C   0  0  0  0  0  0  0  0  0  0  0  0
    8.1431    7.6829   21.9046 C   0  0  0  0  0  0  0  0  0  0  0  0
    7.7796   10.1314   21.5115 N   0  0  0  0  0  0  0  0  0  0  0  0
    9.2768    5.6183   21.4437 C   0  0  0  0  0  0  0  0  0  0  0  0
    8.6315    7.7322   23.1768 C   0  0  0  0  0  0  0  0  0  0  0  0
   13.0537    9.9821   20.5781 C   0  0  0  0  0  0  0  0  0  0  0  0
   10.3850    4.6575   23.2386 O   0  0  0  0  0  0  0  0  0  0  0  0
    4.2069    6.8450   20.7994 C   0  0  0  0  0  0  0  0  0  0  0  0
    3.0726   10.1043   19.8522 O   0  0  0  0  0  0  0  0  0  0  0  0
    5.5057    7.1196   21.1155 C   0  0  0  0  0  0  0  0  0  0  0  0
    7.0367   11.0229   21.9948 O   0  0  0  0  0  0  0  0  0  0  0  0
  1  8  4  0
  1 12  4  0
  2  9  1  0
  2 11  4  0
  2 25  4  0
  3 12  4  0
  3 14  1  0
  3 23  4  0
  4 13  4  0
  4 21  4  0
  4 24  1  0
  5  8  4  0
  5 23  4  0
  6 18  2  0
  7 15  4  0
  7 16  1  0
  7 27  4  0
  8 18  1  0
 10 18  1  0
 10 20  1  0
 11 15  4  0
 11 26  1  0
 13 22  4  0
 16 19  1  0
 16 20  2  0
 17 19  4  0
 17 21  4  0
 19 22  4  0
 20 28  1  0
 25 27  4  0
M  END
$$$$

 Created by Python create_sdf_string function

 28 30  0  0  0  0  0  0  0  0999 V2000
   11.4592   11.2893   18.7941 C   0  0  0  0  0  0  0  0  0  0  0  0
    3.4202    7.9009   20.3866 C   0  0  0  0  0  0  0  0  0  0  0  0
   13.5280   10.3522   19.3586 C   0  0  0  0  0  0  0  0  0  0  0  0
    9.6923    5.6468   22.7891 C   0  0  0  0  0  0  0  0  0  0  0  0
   11.7756   10.2554   20.8841 N   0  0  0  0  0  0  0  0  0  0  0  0
    8.9876   11.9370   19.8757 O   0  0  0  0  0  0  0  0  0  0  0  0
    6.0167    8.4478   21.1089 C   0  0  0  0  0  0  0  0  0  0  0  0
   11.0002   10.8890   20.0262 C   0  0  0  0  0  0  0  0  0  0  0  0
    2.1721    7.7393   20.0315 O   0  0  0  0  0  0  0  0  0  0  0  0
    9.1107   10.3880   21.3769 N   0  0  0  0  0  0  0  0  0  0  0  0
    3.9102    9.2008   20.3124 C   0  0  0  0  0  0  0  0  0  0  0  0
   12.7292   10.9960   18.4597 C   0  0  0  0  0  0  0  0  0  0  0  0
    9.3798    6.6793   23.6625 C   0  0  0  0  0  0  0  0  0  0  0  0
   14.7425   10.0739   19.0802 O   0  0  0  0  0  0  0  0  0  0  0  0
    5.1894    9.4673   20.7118 C   0  0  0  0  0  0  0  0  0  0  0  0
    7.3773    8.8224   21.4870 C   0  0  0  0  0  0  0  0  0  0  0  0
    8.4391    6.6439   21.0235 C   0  0  0  0  0  0  0  0  0  0  0  0
    9.6494   11.1353   20.4167 C   0  0  0  0  0  0  0  0  0  0  0  0
    8.1431    7.6829   21.9046 C   0  0  0  0  0  0  0  0  0  0  0  0
    7.7796   10.1314   21.5115 N   0  0  0  0  0  0  0  0  0  0  0  0
    9.2768    5.6183   21.4437 C   0  0  0  0  0  0  0  0  0  0  0  0
    8.6315    7.7322   23.1768 C   0  0  0  0  0  0  0  0  0  0  0  0
   13.0537    9.9821   20.5781 C   0  0  0  0  0  0  0  0  0  0  0  0
   10.3850    4.6575   23.2386 O   0  0  0  0  0  0  0  0  0  0  0  0
    4.2069    6.8450   20.7994 C   0  0  0  0  0  0  0  0  0  0  0  0
    3.0726   10.1043   19.8522 O   0  0  0  0  0  0  0  0  0  0  0  0
    5.5057    7.1196   21.1155 C   0  0  0  0  0  0  0  0  0  0  0  0
    7.0367   11.0229   21.9948 O   0  0  0  0  0  0  0  0  0  0  0  0
  1  8  4  0
  1 12  4  0
  2  9  1  0
  2 11  4  0
  2 25  4  0
  3 12  4  0
  3 14  1  0
  3 23  4  0
  4 13  4  0
  4 21  4  0
  4 24  1  0
  5  8  4  0
  5 23  4  0
  6 18  2  0
  7 15  4  0
  7 16  1  0
  7 27  4  0
  8 18  1  0
 10 18  1  0
 10 20  1  0
 11 15  4  0
 11 26  1  0
 13 22  4  0
 16 19  1  0
 16 20  2  0
 17 19  4  0
 17 21  4  0
 19 22  4  0
 20 28  1  0
 25 27  4  0
M  END
$$$$

 Created by Python create_sdf_string function

 28 30  0  0  0  0  0  0  0  0999 V2000
   11.4592   11.2893   18.7941 C   0  0  0  0  0  0  0  0  0  0  0  0
    3.4202    7.9009   20.3866 C   0  0  0  0  0  0  0  0  0  0  0  0
   13.5280   10.3522   19.3586 C   0  0  0  0  0  0  0  0  0  0  0  0
    9.6923    5.6468   22.7891 C   0  0  0  0  0  0  0  0  0  0  0  0
   11.7756   10.2554   20.8841 N   0  0  0  0  0  0  0  0  0  0  0  0
    8.9876   11.9370   19.8757 O   0  0  0  0  0  0  0  0  0  0  0  0
    6.0167    8.4478   21.1089 C   0  0  0  0  0  0  0  0  0  0  0  0
   11.0002   10.8890   20.0262 C   0  0  0  0  0  0  0  0  0  0  0  0
    2.1721    7.7393   20.0315 O   0  0  0  0  0  0  0  0  0  0  0  0
    9.1107   10.3880   21.3769 N   0  0  0  0  0  0  0  0  0  0  0  0
    3.9102    9.2008   20.3124 C   0  0  0  0  0  0  0  0  0  0  0  0
   12.7292   10.9960   18.4597 C   0  0  0  0  0  0  0  0  0  0  0  0
    9.3798    6.6793   23.6625 C   0  0  0  0  0  0  0  0  0  0  0  0
   14.7425   10.0739   19.0802 O   0  0  0  0  0  0  0  0  0  0  0  0
    5.1894    9.4673   20.7118 C   0  0  0  0  0  0  0  0  0  0  0  0
    7.3773    8.8224   21.4870 C   0  0  0  0  0  0  0  0  0  0  0  0
    8.4391    6.6439   21.0235 C   0  0  0  0  0  0  0  0  0  0  0  0
    9.6494   11.1353   20.4167 C   0  0  0  0  0  0  0  0  0  0  0  0
    8.1431    7.6829   21.9046 C   0  0  0  0  0  0  0  0  0  0  0  0
    7.7796   10.1314   21.5115 N   0  0  0  0  0  0  0  0  0  0  0  0
    9.2768    5.6183   21.4437 C   0  0  0  0  0  0  0  0  0  0  0  0
    8.6315    7.7322   23.1768 C   0  0  0  0  0  0  0  0  0  0  0  0
   13.0537    9.9821   20.5781 C   0  0  0  0  0  0  0  0  0  0  0  0
   10.3850    4.6575   23.2386 O   0  0  0  0  0  0  0  0  0  0  0  0
    4.2069    6.8450   20.7994 C   0  0  0  0  0  0  0  0  0  0  0  0
    3.0726   10.1043   19.8522 O   0  0  0  0  0  0  0  0  0  0  0  0
    5.5057    7.1196   21.1155 C   0  0  0  0  0  0  0  0  0  0  0  0
    7.0367   11.0229   21.9948 O   0  0  0  0  0  0  0  0  0  0  0  0
  1  8  4  0
  1 12  4  0
  2  9  1  0
  2 11  4  0
  2 25  4  0
  3 12  4  0
  3 14  1  0
  3 23  4  0
  4 13  4  0
  4 21  4  0
  4 24  1  0
  5  8  4  0
  5 23  4  0
  6 18  2  0
  7 15  4  0
  7 16  1  0
  7 27  4  0
  8 18  1  0
 10 18  1  0
 10 20  1  0
 11 15  4  0
 11 26  1  0
 13 22  4  0
 16 19  1  0
 16 20  2  0
 17 19  4  0
 17 21  4  0
 19 22  4  0
 20 28  1  0
 25 27  4  0
M  END
$$$$

 Created by Python create_sdf_string function

 28 30  0  0  0  0  0  0  0  0999 V2000
   11.4592   11.2893   18.7941 C   0  0  0  0  0  0  0  0  0  0  0  0
    3.4202    7.9009   20.3866 C   0  0  0  0  0  0  0  0  0  0  0  0
   13.5280   10.3522   19.3586 C   0  0  0  0  0  0  0  0  0  0  0  0
    9.6923    5.6468   22.7891 C   0  0  0  0  0  0  0  0  0  0  0  0
   11.7756   10.2554   20.8841 N   0  0  0  0  0  0  0  0  0  0  0  0
    8.9876   11.9370   19.8757 O   0  0  0  0  0  0  0  0  0  0  0  0
    6.0167    8.4478   21.1089 C   0  0  0  0  0  0  0  0  0  0  0  0
   11.0002   10.8890   20.0262 C   0  0  0  0  0  0  0  0  0  0  0  0
    2.1721    7.7393   20.0315 O   0  0  0  0  0  0  0  0  0  0  0  0
    9.1107   10.3880   21.3769 N   0  0  0  0  0  0  0  0  0  0  0  0
    3.9102    9.2008   20.3124 C   0  0  0  0  0  0  0  0  0  0  0  0
   12.7292   10.9960   18.4597 C   0  0  0  0  0  0  0  0  0  0  0  0
    9.3798    6.6793   23.6625 C   0  0  0  0  0  0  0  0  0  0  0  0
   14.7425   10.0739   19.0802 O   0  0  0  0  0  0  0  0  0  0  0  0
    5.1894    9.4673   20.7118 C   0  0  0  0  0  0  0  0  0  0  0  0
    7.3773    8.8224   21.4870 C   0  0  0  0  0  0  0  0  0  0  0  0
    8.4391    6.6439   21.0235 C   0  0  0  0  0  0  0  0  0  0  0  0
    9.6494   11.1353   20.4167 C   0  0  0  0  0  0  0  0  0  0  0  0
    8.1431    7.6829   21.9046 C   0  0  0  0  0  0  0  0  0  0  0  0
    7.7796   10.1314   21.5115 N   0  0  0  0  0  0  0  0  0  0  0  0
    9.2768    5.6183   21.4437 C   0  0  0  0  0  0  0  0  0  0  0  0
    8.6315    7.7322   23.1768 C   0  0  0  0  0  0  0  0  0  0  0  0
   13.0537    9.9821   20.5781 C   0  0  0  0  0  0  0  0  0  0  0  0
   10.3850    4.6575   23.2386 O   0  0  0  0  0  0  0  0  0  0  0  0
    4.2069    6.8450   20.7994 C   0  0  0  0  0  0  0  0  0  0  0  0
    3.0726   10.1043   19.8522 O   0  0  0  0  0  0  0  0  0  0  0  0
    5.5057    7.1196   21.1155 C   0  0  0  0  0  0  0  0  0  0  0  0
    7.0367   11.0229   21.9948 O   0  0  0  0  0  0  0  0  0  0  0  0
  1  8  4  0
  1 12  4  0
  2  9  1  0
  2 11  4  0
  2 25  4  0
  3 12  4  0
  3 14  1  0
  3 23  4  0
  4 13  4  0
  4 21  4  0
  4 24  1  0
  5  8  4  0
  5 23  4  0
  6 18  2  0
  7 15  4  0
  7 16  1  0
  7 27  4  0
  8 18  1  0
 10 18  1  0
 10 20  1  0
 11 15  4  0
 11 26  1  0
 13 22  4  0
 16 19  1  0
 16 20  2  0
 17 19  4  0
 17 21  4  0
 19 22  4  0
 20 28  1  0
 25 27  4  0
M  END
$$$$

 Created by Python create_sdf_string function

 28 30  0  0  0  0  0  0  0  0999 V2000
   11.4592   11.2893   18.7941 C   0  0  0  0  0  0  0  0  0  0  0  0
    3.4202    7.9009   20.3866 C   0  0  0  0  0  0  0  0  0  0  0  0
   13.5280   10.3522   19.3586 C   0  0  0  0  0  0  0  0  0  0  0  0
    9.6923    5.6468   22.7891 C   0  0  0  0  0  0  0  0  0  0  0  0
   11.7756   10.2554   20.8841 N   0  0  0  0  0  0  0  0  0  0  0  0
    8.9876   11.9370   19.8757 O   0  0  0  0  0  0  0  0  0  0  0  0
    6.0167    8.4478   21.1089 C   0  0  0  0  0  0  0  0  0  0  0  0
   11.0002   10.8890   20.0262 C   0  0  0  0  0  0  0  0  0  0  0  0
    2.1721    7.7393   20.0315 O   0  0  0  0  0  0  0  0  0  0  0  0
    9.1107   10.3880   21.3769 N   0  0  0  0  0  0  0  0  0  0  0  0
    3.9102    9.2008   20.3124 C   0  0  0  0  0  0  0  0  0  0  0  0
   12.7292   10.9960   18.4597 C   0  0  0  0  0  0  0  0  0  0  0  0
    9.3798    6.6793   23.6625 C   0  0  0  0  0  0  0  0  0  0  0  0
   14.7425   10.0739   19.0802 O   0  0  0  0  0  0  0  0  0  0  0  0
    5.1894    9.4673   20.7118 C   0  0  0  0  0  0  0  0  0  0  0  0
    7.3773    8.8224   21.4870 C   0  0  0  0  0  0  0  0  0  0  0  0
    8.4391    6.6439   21.0235 C   0  0  0  0  0  0  0  0  0  0  0  0
    9.6494   11.1353   20.4167 C   0  0  0  0  0  0  0  0  0  0  0  0
    8.1431    7.6829   21.9046 C   0  0  0  0  0  0  0  0  0  0  0  0
    7.7796   10.1314   21.5115 N   0  0  0  0  0  0  0  0  0  0  0  0
    9.2768    5.6183   21.4437 C   0  0  0  0  0  0  0  0  0  0  0  0
    8.6315    7.7322   23.1768 C   0  0  0  0  0  0  0  0  0  0  0  0
   13.0537    9.9821   20.5781 C   0  0  0  0  0  0  0  0  0  0  0  0
   10.3850    4.6575   23.2386 O   0  0  0  0  0  0  0  0  0  0  0  0
    4.2069    6.8450   20.7994 C   0  0  0  0  0  0  0  0  0  0  0  0
    3.0726   10.1043   19.8522 O   0  0  0  0  0  0  0  0  0  0  0  0
    5.5057    7.1196   21.1155 C   0  0  0  0  0  0  0  0  0  0  0  0
    7.0367   11.0229   21.9948 O   0  0  0  0  0  0  0  0  0  0  0  0
  1  8  4  0
  1 12  4  0
  2  9  1  0
  2 11  4  0
  2 25  4  0
  3 12  4  0
  3 14  1  0
  3 23  4  0
  4 13  4  0
  4 21  4  0
  4 24  1  0
  5  8  4  0
  5 23  4  0
  6 18  2  0
  7 15  4  0
  7 16  1  0
  7 27  4  0
  8 18  1  0
 10 18  1  0
 10 20  1  0
 11 15  4  0
 11 26  1  0
 13 22  4  0
 16 19  1  0
 16 20  2  0
 17 19  4  0
 17 21  4  0
 19 22  4  0
 20 28  1  0
 25 27  4  0
M  END
$$$$

 Created by Python create_sdf_string function

 28 30  0  0  0  0  0  0  0  0999 V2000
   11.4592   11.2893   18.7941 C   0  0  0  0  0  0  0  0  0  0  0  0
    3.4202    7.9009   20.3866 C   0  0  0  0  0  0  0  0  0  0  0  0
   13.5280   10.3522   19.3586 C   0  0  0  0  0  0  0  0  0  0  0  0
    9.6923    5.6468   22.7891 C   0  0  0  0  0  0  0  0  0  0  0  0
   11.7756   10.2554   20.8841 N   0  0  0  0  0  0  0  0  0  0  0  0
    8.9876   11.9370   19.8757 O   0  0  0  0  0  0  0  0  0  0  0  0
    6.0167    8.4478   21.1089 C   0  0  0  0  0  0  0  0  0  0  0  0
   11.0002   10.8890   20.0262 C   0  0  0  0  0  0  0  0  0  0  0  0
    2.1721    7.7393   20.0315 O   0  0  0  0  0  0  0  0  0  0  0  0
    9.1107   10.3880   21.3769 N   0  0  0  0  0  0  0  0  0  0  0  0
    3.9102    9.2008   20.3124 C   0  0  0  0  0  0  0  0  0  0  0  0
   12.7292   10.9960   18.4597 C   0  0  0  0  0  0  0  0  0  0  0  0
    9.3798    6.6793   23.6625 C   0  0  0  0  0  0  0  0  0  0  0  0
   14.7425   10.0739   19.0802 O   0  0  0  0  0  0  0  0  0  0  0  0
    5.1894    9.4673   20.7118 C   0  0  0  0  0  0  0  0  0  0  0  0
    7.3773    8.8224   21.4870 C   0  0  0  0  0  0  0  0  0  0  0  0
    8.4391    6.6439   21.0235 C   0  0  0  0  0  0  0  0  0  0  0  0
    9.6494   11.1353   20.4167 C   0  0  0  0  0  0  0  0  0  0  0  0
    8.1431    7.6829   21.9046 C   0  0  0  0  0  0  0  0  0  0  0  0
    7.7796   10.1314   21.5115 N   0  0  0  0  0  0  0  0  0  0  0  0
    9.2768    5.6183   21.4437 C   0  0  0  0  0  0  0  0  0  0  0  0
    8.6315    7.7322   23.1768 C   0  0  0  0  0  0  0  0  0  0  0  0
   13.0537    9.9821   20.5781 C   0  0  0  0  0  0  0  0  0  0  0  0
   10.3850    4.6575   23.2386 O   0  0  0  0  0  0  0  0  0  0  0  0
    4.2069    6.8450   20.7994 C   0  0  0  0  0  0  0  0  0  0  0  0
    3.0726   10.1043   19.8522 O   0  0  0  0  0  0  0  0  0  0  0  0
    5.5057    7.1196   21.1155 C   0  0  0  0  0  0  0  0  0  0  0  0
    7.0367   11.0229   21.9948 O   0  0  0  0  0  0  0  0  0  0  0  0
  1  8  4  0
  1 12  4  0
  2  9  1  0
  2 11  4  0
  2 25  4  0
  3 12  4  0
  3 14  1  0
  3 23  4  0
  4 13  4  0
  4 21  4  0
  4 24  1  0
  5  8  4  0
  5 23  4  0
  6 18  2  0
  7 15  4  0
  7 16  1  0
  7 27  4  0
  8 18  1  0
 10 18  1  0
 10 20  1  0
 11 15  4  0
 11 26  1  0
 13 22  4  0
 16 19  1  0
 16 20  2  0
 17 19  4  0
 17 21  4  0
 19 22  4  0
 20 28  1  0
 25 27  4  0
M  END
$$$$

 Created by Python create_sdf_string function

 28 30  0  0  0  0  0  0  0  0999 V2000
   11.4592   11.2893   18.7941 C   0  0  0  0  0  0  0  0  0  0  0  0
    3.4202    7.9009   20.3866 C   0  0  0  0  0  0  0  0  0  0  0  0
   13.5280   10.3522   19.3586 C   0  0  0  0  0  0  0  0  0  0  0  0
    9.6923    5.6468   22.7891 C   0  0  0  0  0  0  0  0  0  0  0  0
   11.7756   10.2554   20.8841 N   0  0  0  0  0  0  0  0  0  0  0  0
    8.9876   11.9370   19.8757 O   0  0  0  0  0  0  0  0  0  0  0  0
    6.0167    8.4478   21.1089 C   0  0  0  0  0  0  0  0  0  0  0  0
   11.0002   10.8890   20.0262 C   0  0  0  0  0  0  0  0  0  0  0  0
    2.1721    7.7393   20.0315 O   0  0  0  0  0  0  0  0  0  0  0  0
    9.1107   10.3880   21.3769 N   0  0  0  0  0  0  0  0  0  0  0  0
    3.9102    9.2008   20.3124 C   0  0  0  0  0  0  0  0  0  0  0  0
   12.7292   10.9960   18.4597 C   0  0  0  0  0  0  0  0  0  0  0  0
    9.3798    6.6793   23.6625 C   0  0  0  0  0  0  0  0  0  0  0  0
   14.7425   10.0739   19.0802 O   0  0  0  0  0  0  0  0  0  0  0  0
    5.1894    9.4673   20.7118 C   0  0  0  0  0  0  0  0  0  0  0  0
    7.3773    8.8224   21.4870 C   0  0  0  0  0  0  0  0  0  0  0  0
    8.4391    6.6439   21.0235 C   0  0  0  0  0  0  0  0  0  0  0  0
    9.6494   11.1353   20.4167 C   0  0  0  0  0  0  0  0  0  0  0  0
    8.1431    7.6829   21.9046 C   0  0  0  0  0  0  0  0  0  0  0  0
    7.7796   10.1314   21.5115 N   0  0  0  0  0  0  0  0  0  0  0  0
    9.2768    5.6183   21.4437 C   0  0  0  0  0  0  0  0  0  0  0  0
    8.6315    7.7322   23.1768 C   0  0  0  0  0  0  0  0  0  0  0  0
   13.0537    9.9821   20.5781 C   0  0  0  0  0  0  0  0  0  0  0  0
   10.3850    4.6575   23.2386 O   0  0  0  0  0  0  0  0  0  0  0  0
    4.2069    6.8450   20.7994 C   0  0  0  0  0  0  0  0  0  0  0  0
    3.0726   10.1043   19.8522 O   0  0  0  0  0  0  0  0  0  0  0  0
    5.5057    7.1196   21.1155 C   0  0  0  0  0  0  0  0  0  0  0  0
    7.0367   11.0229   21.9948 O   0  0  0  0  0  0  0  0  0  0  0  0
  1  8  4  0
  1 12  4  0
  2  9  1  0
  2 11  4  0
  2 25  4  0
  3 12  4  0
  3 14  1  0
  3 23  4  0
  4 13  4  0
  4 21  4  0
  4 24  1  0
  5  8  4  0
  5 23  4  0
  6 18  2  0
  7 15  4  0
  7 16  1  0
  7 27  4  0
  8 18  1  0
 10 18  1  0
 10 20  1  0
 11 15  4  0
 11 26  1  0
 13 22  4  0
 16 19  1  0
 16 20  2  0
 17 19  4  0
 17 21  4  0
 19 22  4  0
 20 28  1  0
 25 27  4  0
M  END
$$$$

 Created by Python create_sdf_string function

 28 30  0  0  0  0  0  0  0  0999 V2000
   11.4592   11.2893   18.7941 C   0  0  0  0  0  0  0  0  0  0  0  0
    3.4202    7.9009   20.3866 C   0  0  0  0  0  0  0  0  0  0  0  0
   13.5280   10.3522   19.3586 C   0  0  0  0  0  0  0  0  0  0  0  0
    9.6923    5.6468   22.7891 C   0  0  0  0  0  0  0  0  0  0  0  0
   11.7756   10.2554   20.8841 N   0  0  0  0  0  0  0  0  0  0  0  0
    8.9876   11.9370   19.8757 O   0  0  0  0  0  0  0  0  0  0  0  0
    6.0167    8.4478   21.1089 C   0  0  0  0  0  0  0  0  0  0  0  0
   11.0002   10.8890   20.0262 C   0  0  0  0  0  0  0  0  0  0  0  0
    2.1721    7.7393   20.0315 O   0  0  0  0  0  0  0  0  0  0  0  0
    9.1107   10.3880   21.3769 N   0  0  0  0  0  0  0  0  0  0  0  0
    3.9102    9.2008   20.3124 C   0  0  0  0  0  0  0  0  0  0  0  0
   12.7292   10.9960   18.4597 C   0  0  0  0  0  0  0  0  0  0  0  0
    9.3798    6.6793   23.6625 C   0  0  0  0  0  0  0  0  0  0  0  0
   14.7425   10.0739   19.0802 O   0  0  0  0  0  0  0  0  0  0  0  0
    5.1894    9.4673   20.7118 C   0  0  0  0  0  0  0  0  0  0  0  0
    7.3773    8.8224   21.4870 C   0  0  0  0  0  0  0  0  0  0  0  0
    8.4391    6.6439   21.0235 C   0  0  0  0  0  0  0  0  0  0  0  0
    9.6494   11.1353   20.4167 C   0  0  0  0  0  0  0  0  0  0  0  0
    8.1431    7.6829   21.9046 C   0  0  0  0  0  0  0  0  0  0  0  0
    7.7796   10.1314   21.5115 N   0  0  0  0  0  0  0  0  0  0  0  0
    9.2768    5.6183   21.4437 C   0  0  0  0  0  0  0  0  0  0  0  0
    8.6315    7.7322   23.1768 C   0  0  0  0  0  0  0  0  0  0  0  0
   13.0537    9.9821   20.5781 C   0  0  0  0  0  0  0  0  0  0  0  0
   10.3850    4.6575   23.2386 O   0  0  0  0  0  0  0  0  0  0  0  0
    4.2069    6.8450   20.7994 C   0  0  0  0  0  0  0  0  0  0  0  0
    3.0726   10.1043   19.8522 O   0  0  0  0  0  0  0  0  0  0  0  0
    5.5057    7.1196   21.1155 C   0  0  0  0  0  0  0  0  0  0  0  0
    7.0367   11.0229   21.9948 O   0  0  0  0  0  0  0  0  0  0  0  0
  1  8  4  0
  1 12  4  0
  2  9  1  0
  2 11  4  0
  2 25  4  0
  3 12  4  0
  3 14  1  0
  3 23  4  0
  4 13  4  0
  4 21  4  0
  4 24  1  0
  5  8  4  0
  5 23  4  0
  6 18  2  0
  7 15  4  0
  7 16  1  0
  7 27  4  0
  8 18  1  0
 10 18  1  0
 10 20  1  0
 11 15  4  0
 11 26  1  0
 13 22  4  0
 16 19  1  0
 16 20  2  0
 17 19  4  0
 17 21  4  0
 19 22  4  0
 20 28  1  0
 25 27  4  0
M  END
$$$$

 Created by Python create_sdf_string function

 28 30  0  0  0  0  0  0  0  0999 V2000
   11.4592   11.2893   18.7941 C   0  0  0  0  0  0  0  0  0  0  0  0
    3.4202    7.9009   20.3866 C   0  0  0  0  0  0  0  0  0  0  0  0
   13.5280   10.3522   19.3586 C   0  0  0  0  0  0  0  0  0  0  0  0
    9.6923    5.6468   22.7891 C   0  0  0  0  0  0  0  0  0  0  0  0
   11.7756   10.2554   20.8841 N   0  0  0  0  0  0  0  0  0  0  0  0
    8.9876   11.9370   19.8757 O   0  0  0  0  0  0  0  0  0  0  0  0
    6.0167    8.4478   21.1089 C   0  0  0  0  0  0  0  0  0  0  0  0
   11.0002   10.8890   20.0262 C   0  0  0  0  0  0  0  0  0  0  0  0
    2.1721    7.7393   20.0315 O   0  0  0  0  0  0  0  0  0  0  0  0
    9.1107   10.3880   21.3769 N   0  0  0  0  0  0  0  0  0  0  0  0
    3.9102    9.2008   20.3124 C   0  0  0  0  0  0  0  0  0  0  0  0
   12.7292   10.9960   18.4597 C   0  0  0  0  0  0  0  0  0  0  0  0
    9.3798    6.6793   23.6625 C   0  0  0  0  0  0  0  0  0  0  0  0
   14.7425   10.0739   19.0802 O   0  0  0  0  0  0  0  0  0  0  0  0
    5.1894    9.4673   20.7118 C   0  0  0  0  0  0  0  0  0  0  0  0
    7.3773    8.8224   21.4870 C   0  0  0  0  0  0  0  0  0  0  0  0
    8.4391    6.6439   21.0235 C   0  0  0  0  0  0  0  0  0  0  0  0
    9.6494   11.1353   20.4167 C   0  0  0  0  0  0  0  0  0  0  0  0
    8.1431    7.6829   21.9046 C   0  0  0  0  0  0  0  0  0  0  0  0
    7.7796   10.1314   21.5115 N   0  0  0  0  0  0  0  0  0  0  0  0
    9.2768    5.6183   21.4437 C   0  0  0  0  0  0  0  0  0  0  0  0
    8.6315    7.7322   23.1768 C   0  0  0  0  0  0  0  0  0  0  0  0
   13.0537    9.9821   20.5781 C   0  0  0  0  0  0  0  0  0  0  0  0
   10.3850    4.6575   23.2386 O   0  0  0  0  0  0  0  0  0  0  0  0
    4.2069    6.8450   20.7994 C   0  0  0  0  0  0  0  0  0  0  0  0
    3.0726   10.1043   19.8522 O   0  0  0  0  0  0  0  0  0  0  0  0
    5.5057    7.1196   21.1155 C   0  0  0  0  0  0  0  0  0  0  0  0
    7.0367   11.0229   21.9948 O   0  0  0  0  0  0  0  0  0  0  0  0
  1  8  4  0
  1 12  4  0
  2  9  1  0
  2 11  4  0
  2 25  4  0
  3 12  4  0
  3 14  1  0
  3 23  4  0
  4 13  4  0
  4 21  4  0
  4 24  1  0
  5  8  4  0
  5 23  4  0
  6 18  2  0
  7 15  4  0
  7 16  1  0
  7 27  4  0
  8 18  1  0
 10 18  1  0
 10 20  1  0
 11 15  4  0
 11 26  1  0
 13 22  4  0
 16 19  1  0
 16 20  2  0
 17 19  4  0
 17 21  4  0
 19 22  4  0
 20 28  1  0
 25 27  4  0
M  END
$$$$

 Created by Python create_sdf_string function

 28 30  0  0  0  0  0  0  0  0999 V2000
   11.4592   11.2893   18.7941 C   0  0  0  0  0  0  0  0  0  0  0  0
    3.4202    7.9009   20.3866 C   0  0  0  0  0  0  0  0  0  0  0  0
   13.5280   10.3522   19.3586 C   0  0  0  0  0  0  0  0  0  0  0  0
    9.6923    5.6468   22.7891 C   0  0  0  0  0  0  0  0  0  0  0  0
   11.7756   10.2554   20.8841 N   0  0  0  0  0  0  0  0  0  0  0  0
    8.9876   11.9370   19.8757 O   0  0  0  0  0  0  0  0  0  0  0  0
    6.0167    8.4478   21.1089 C   0  0  0  0  0  0  0  0  0  0  0  0
   11.0002   10.8890   20.0262 C   0  0  0  0  0  0  0  0  0  0  0  0
    2.1721    7.7393   20.0315 O   0  0  0  0  0  0  0  0  0  0  0  0
    9.1107   10.3880   21.3769 N   0  0  0  0  0  0  0  0  0  0  0  0
    3.9102    9.2008   20.3124 C   0  0  0  0  0  0  0  0  0  0  0  0
   12.7292   10.9960   18.4597 C   0  0  0  0  0  0  0  0  0  0  0  0
    9.3798    6.6793   23.6625 C   0  0  0  0  0  0  0  0  0  0  0  0
   14.7425   10.0739   19.0802 O   0  0  0  0  0  0  0  0  0  0  0  0
    5.1894    9.4673   20.7118 C   0  0  0  0  0  0  0  0  0  0  0  0
    7.3773    8.8224   21.4870 C   0  0  0  0  0  0  0  0  0  0  0  0
    8.4391    6.6439   21.0235 C   0  0  0  0  0  0  0  0  0  0  0  0
    9.6494   11.1353   20.4167 C   0  0  0  0  0  0  0  0  0  0  0  0
    8.1431    7.6829   21.9046 C   0  0  0  0  0  0  0  0  0  0  0  0
    7.7796   10.1314   21.5115 N   0  0  0  0  0  0  0  0  0  0  0  0
    9.2768    5.6183   21.4437 C   0  0  0  0  0  0  0  0  0  0  0  0
    8.6315    7.7322   23.1768 C   0  0  0  0  0  0  0  0  0  0  0  0
   13.0537    9.9821   20.5781 C   0  0  0  0  0  0  0  0  0  0  0  0
   10.3850    4.6575   23.2386 O   0  0  0  0  0  0  0  0  0  0  0  0
    4.2069    6.8450   20.7994 C   0  0  0  0  0  0  0  0  0  0  0  0
    3.0726   10.1043   19.8522 O   0  0  0  0  0  0  0  0  0  0  0  0
    5.5057    7.1196   21.1155 C   0  0  0  0  0  0  0  0  0  0  0  0
    7.0367   11.0229   21.9948 O   0  0  0  0  0  0  0  0  0  0  0  0
  1  8  4  0
  1 12  4  0
  2  9  1  0
  2 11  4  0
  2 25  4  0
  3 12  4  0
  3 14  1  0
  3 23  4  0
  4 13  4  0
  4 21  4  0
  4 24  1  0
  5  8  4  0
  5 23  4  0
  6 18  2  0
  7 15  4  0
  7 16  1  0
  7 27  4  0
  8 18  1  0
 10 18  1  0
 10 20  1  0
 11 15  4  0
 11 26  1  0
 13 22  4  0
 16 19  1  0
 16 20  2  0
 17 19  4  0
 17 21  4  0
 19 22  4  0
 20 28  1  0
 25 27  4  0
M  END
$$$$

 Created by Python create_sdf_string function

 28 30  0  0  0  0  0  0  0  0999 V2000
   11.4592   11.2893   18.7941 C   0  0  0  0  0  0  0  0  0  0  0  0
    3.4202    7.9009   20.3866 C   0  0  0  0  0  0  0  0  0  0  0  0
   13.5280   10.3522   19.3586 C   0  0  0  0  0  0  0  0  0  0  0  0
    9.6923    5.6468   22.7891 C   0  0  0  0  0  0  0  0  0  0  0  0
   11.7756   10.2554   20.8841 N   0  0  0  0  0  0  0  0  0  0  0  0
    8.9876   11.9370   19.8757 O   0  0  0  0  0  0  0  0  0  0  0  0
    6.0167    8.4478   21.1089 C   0  0  0  0  0  0  0  0  0  0  0  0
   11.0002   10.8890   20.0262 C   0  0  0  0  0  0  0  0  0  0  0  0
    2.1721    7.7393   20.0315 O   0  0  0  0  0  0  0  0  0  0  0  0
    9.1107   10.3880   21.3769 N   0  0  0  0  0  0  0  0  0  0  0  0
    3.9102    9.2008   20.3124 C   0  0  0  0  0  0  0  0  0  0  0  0
   12.7292   10.9960   18.4597 C   0  0  0  0  0  0  0  0  0  0  0  0
    9.3798    6.6793   23.6625 C   0  0  0  0  0  0  0  0  0  0  0  0
   14.7425   10.0739   19.0802 O   0  0  0  0  0  0  0  0  0  0  0  0
    5.1894    9.4673   20.7118 C   0  0  0  0  0  0  0  0  0  0  0  0
    7.3773    8.8224   21.4870 C   0  0  0  0  0  0  0  0  0  0  0  0
    8.4391    6.6439   21.0235 C   0  0  0  0  0  0  0  0  0  0  0  0
    9.6494   11.1353   20.4167 C   0  0  0  0  0  0  0  0  0  0  0  0
    8.1431    7.6829   21.9046 C   0  0  0  0  0  0  0  0  0  0  0  0
    7.7796   10.1314   21.5115 N   0  0  0  0  0  0  0  0  0  0  0  0
    9.2768    5.6183   21.4437 C   0  0  0  0  0  0  0  0  0  0  0  0
    8.6315    7.7322   23.1768 C   0  0  0  0  0  0  0  0  0  0  0  0
   13.0537    9.9821   20.5781 C   0  0  0  0  0  0  0  0  0  0  0  0
   10.3850    4.6575   23.2386 O   0  0  0  0  0  0  0  0  0  0  0  0
    4.2069    6.8450   20.7994 C   0  0  0  0  0  0  0  0  0  0  0  0
    3.0726   10.1043   19.8522 O   0  0  0  0  0  0  0  0  0  0  0  0
    5.5057    7.1196   21.1155 C   0  0  0  0  0  0  0  0  0  0  0  0
    7.0367   11.0229   21.9948 O   0  0  0  0  0  0  0  0  0  0  0  0
  1  8  4  0
  1 12  4  0
  2  9  1  0
  2 11  4  0
  2 25  4  0
  3 12  4  0
  3 14  1  0
  3 23  4  0
  4 13  4  0
  4 21  4  0
  4 24  1  0
  5  8  4  0
  5 23  4  0
  6 18  2  0
  7 15  4  0
  7 16  1  0
  7 27  4  0
  8 18  1  0
 10 18  1  0
 10 20  1  0
 11 15  4  0
 11 26  1  0
 13 22  4  0
 16 19  1  0
 16 20  2  0
 17 19  4  0
 17 21  4  0
 19 22  4  0
 20 28  1  0
 25 27  4  0
M  END
$$$$

 Created by Python create_sdf_string function

 28 30  0  0  0  0  0  0  0  0999 V2000
   11.4592   11.2893   18.7941 C   0  0  0  0  0  0  0  0  0  0  0  0
    3.4202    7.9009   20.3866 C   0  0  0  0  0  0  0  0  0  0  0  0
   13.5280   10.3522   19.3586 C   0  0  0  0  0  0  0  0  0  0  0  0
    9.6923    5.6468   22.7891 C   0  0  0  0  0  0  0  0  0  0  0  0
   11.7756   10.2554   20.8841 N   0  0  0  0  0  0  0  0  0  0  0  0
    8.9876   11.9370   19.8757 O   0  0  0  0  0  0  0  0  0  0  0  0
    6.0167    8.4478   21.1089 C   0  0  0  0  0  0  0  0  0  0  0  0
   11.0002   10.8890   20.0262 C   0  0  0  0  0  0  0  0  0  0  0  0
    2.1721    7.7393   20.0315 O   0  0  0  0  0  0  0  0  0  0  0  0
    9.1107   10.3880   21.3769 N   0  0  0  0  0  0  0  0  0  0  0  0
    3.9102    9.2008   20.3124 C   0  0  0  0  0  0  0  0  0  0  0  0
   12.7292   10.9960   18.4597 C   0  0  0  0  0  0  0  0  0  0  0  0
    9.3798    6.6793   23.6625 C   0  0  0  0  0  0  0  0  0  0  0  0
   14.7425   10.0739   19.0802 O   0  0  0  0  0  0  0  0  0  0  0  0
    5.1894    9.4673   20.7118 C   0  0  0  0  0  0  0  0  0  0  0  0
    7.3773    8.8224   21.4870 C   0  0  0  0  0  0  0  0  0  0  0  0
    8.4391    6.6439   21.0235 C   0  0  0  0  0  0  0  0  0  0  0  0
    9.6494   11.1353   20.4167 C   0  0  0  0  0  0  0  0  0  0  0  0
    8.1431    7.6829   21.9046 C   0  0  0  0  0  0  0  0  0  0  0  0
    7.7796   10.1314   21.5115 N   0  0  0  0  0  0  0  0  0  0  0  0
    9.2768    5.6183   21.4437 C   0  0  0  0  0  0  0  0  0  0  0  0
    8.6315    7.7322   23.1768 C   0  0  0  0  0  0  0  0  0  0  0  0
   13.0537    9.9821   20.5781 C   0  0  0  0  0  0  0  0  0  0  0  0
   10.3850    4.6575   23.2386 O   0  0  0  0  0  0  0  0  0  0  0  0
    4.2069    6.8450   20.7994 C   0  0  0  0  0  0  0  0  0  0  0  0
    3.0726   10.1043   19.8522 O   0  0  0  0  0  0  0  0  0  0  0  0
    5.5057    7.1196   21.1155 C   0  0  0  0  0  0  0  0  0  0  0  0
    7.0367   11.0229   21.9948 O   0  0  0  0  0  0  0  0  0  0  0  0
  1  8  4  0
  1 12  4  0
  2  9  1  0
  2 11  4  0
  2 25  4  0
  3 12  4  0
  3 14  1  0
  3 23  4  0
  4 13  4  0
  4 21  4  0
  4 24  1  0
  5  8  4  0
  5 23  4  0
  6 18  2  0
  7 15  4  0
  7 16  1  0
  7 27  4  0
  8 18  1  0
 10 18  1  0
 10 20  1  0
 11 15  4  0
 11 26  1  0
 13 22  4  0
 16 19  1  0
 16 20  2  0
 17 19  4  0
 17 21  4  0
 19 22  4  0
 20 28  1  0
 25 27  4  0
M  END
$$$$

 Created by Python create_sdf_string function

 28 30  0  0  0  0  0  0  0  0999 V2000
   11.4592   11.2893   18.7941 C   0  0  0  0  0  0  0  0  0  0  0  0
    3.4202    7.9009   20.3866 C   0  0  0  0  0  0  0  0  0  0  0  0
   13.5280   10.3522   19.3586 C   0  0  0  0  0  0  0  0  0  0  0  0
    9.6923    5.6468   22.7891 C   0  0  0  0  0  0  0  0  0  0  0  0
   11.7756   10.2554   20.8841 N   0  0  0  0  0  0  0  0  0  0  0  0
    8.9876   11.9370   19.8757 O   0  0  0  0  0  0  0  0  0  0  0  0
    6.0167    8.4478   21.1089 C   0  0  0  0  0  0  0  0  0  0  0  0
   11.0002   10.8890   20.0262 C   0  0  0  0  0  0  0  0  0  0  0  0
    2.1721    7.7393   20.0315 O   0  0  0  0  0  0  0  0  0  0  0  0
    9.1107   10.3880   21.3769 N   0  0  0  0  0  0  0  0  0  0  0  0
    3.9102    9.2008   20.3124 C   0  0  0  0  0  0  0  0  0  0  0  0
   12.7292   10.9960   18.4597 C   0  0  0  0  0  0  0  0  0  0  0  0
    9.3798    6.6793   23.6625 C   0  0  0  0  0  0  0  0  0  0  0  0
   14.7425   10.0739   19.0802 O   0  0  0  0  0  0  0  0  0  0  0  0
    5.1894    9.4673   20.7118 C   0  0  0  0  0  0  0  0  0  0  0  0
    7.3773    8.8224   21.4870 C   0  0  0  0  0  0  0  0  0  0  0  0
    8.4391    6.6439   21.0235 C   0  0  0  0  0  0  0  0  0  0  0  0
    9.6494   11.1353   20.4167 C   0  0  0  0  0  0  0  0  0  0  0  0
    8.1431    7.6829   21.9046 C   0  0  0  0  0  0  0  0  0  0  0  0
    7.7796   10.1314   21.5115 N   0  0  0  0  0  0  0  0  0  0  0  0
    9.2768    5.6183   21.4437 C   0  0  0  0  0  0  0  0  0  0  0  0
    8.6315    7.7322   23.1768 C   0  0  0  0  0  0  0  0  0  0  0  0
   13.0537    9.9821   20.5781 C   0  0  0  0  0  0  0  0  0  0  0  0
   10.3850    4.6575   23.2386 O   0  0  0  0  0  0  0  0  0  0  0  0
    4.2069    6.8450   20.7994 C   0  0  0  0  0  0  0  0  0  0  0  0
    3.0726   10.1043   19.8522 O   0  0  0  0  0  0  0  0  0  0  0  0
    5.5057    7.1196   21.1155 C   0  0  0  0  0  0  0  0  0  0  0  0
    7.0367   11.0229   21.9948 O   0  0  0  0  0  0  0  0  0  0  0  0
  1  8  4  0
  1 12  4  0
  2  9  1  0
  2 11  4  0
  2 25  4  0
  3 12  4  0
  3 14  1  0
  3 23  4  0
  4 13  4  0
  4 21  4  0
  4 24  1  0
  5  8  4  0
  5 23  4  0
  6 18  2  0
  7 15  4  0
  7 16  1  0
  7 27  4  0
  8 18  1  0
 10 18  1  0
 10 20  1  0
 11 15  4  0
 11 26  1  0
 13 22  4  0
 16 19  1  0
 16 20  2  0
 17 19  4  0
 17 21  4  0
 19 22  4  0
 20 28  1  0
 25 27  4  0
M  END
$$$$

 Created by Python create_sdf_string function

 28 30  0  0  0  0  0  0  0  0999 V2000
   11.4592   11.2893   18.7941 C   0  0  0  0  0  0  0  0  0  0  0  0
    3.4202    7.9009   20.3866 C   0  0  0  0  0  0  0  0  0  0  0  0
   13.5280   10.3522   19.3586 C   0  0  0  0  0  0  0  0  0  0  0  0
    9.6923    5.6468   22.7891 C   0  0  0  0  0  0  0  0  0  0  0  0
   11.7756   10.2554   20.8841 N   0  0  0  0  0  0  0  0  0  0  0  0
    8.9876   11.9370   19.8757 O   0  0  0  0  0  0  0  0  0  0  0  0
    6.0167    8.4478   21.1089 C   0  0  0  0  0  0  0  0  0  0  0  0
   11.0002   10.8890   20.0262 C   0  0  0  0  0  0  0  0  0  0  0  0
    2.1721    7.7393   20.0315 O   0  0  0  0  0  0  0  0  0  0  0  0
    9.1107   10.3880   21.3769 N   0  0  0  0  0  0  0  0  0  0  0  0
    3.9102    9.2008   20.3124 C   0  0  0  0  0  0  0  0  0  0  0  0
   12.7292   10.9960   18.4597 C   0  0  0  0  0  0  0  0  0  0  0  0
    9.3798    6.6793   23.6625 C   0  0  0  0  0  0  0  0  0  0  0  0
   14.7425   10.0739   19.0802 O   0  0  0  0  0  0  0  0  0  0  0  0
    5.1894    9.4673   20.7118 C   0  0  0  0  0  0  0  0  0  0  0  0
    7.3773    8.8224   21.4870 C   0  0  0  0  0  0  0  0  0  0  0  0
    8.4391    6.6439   21.0235 C   0  0  0  0  0  0  0  0  0  0  0  0
    9.6494   11.1353   20.4167 C   0  0  0  0  0  0  0  0  0  0  0  0
    8.1431    7.6829   21.9046 C   0  0  0  0  0  0  0  0  0  0  0  0
    7.7796   10.1314   21.5115 N   0  0  0  0  0  0  0  0  0  0  0  0
    9.2768    5.6183   21.4437 C   0  0  0  0  0  0  0  0  0  0  0  0
    8.6315    7.7322   23.1768 C   0  0  0  0  0  0  0  0  0  0  0  0
   13.0537    9.9821   20.5781 C   0  0  0  0  0  0  0  0  0  0  0  0
   10.3850    4.6575   23.2386 O   0  0  0  0  0  0  0  0  0  0  0  0
    4.2069    6.8450   20.7994 C   0  0  0  0  0  0  0  0  0  0  0  0
    3.0726   10.1043   19.8522 O   0  0  0  0  0  0  0  0  0  0  0  0
    5.5057    7.1196   21.1155 C   0  0  0  0  0  0  0  0  0  0  0  0
    7.0367   11.0229   21.9948 O   0  0  0  0  0  0  0  0  0  0  0  0
  1  8  4  0
  1 12  4  0
  2  9  1  0
  2 11  4  0
  2 25  4  0
  3 12  4  0
  3 14  1  0
  3 23  4  0
  4 13  4  0
  4 21  4  0
  4 24  1  0
  5  8  4  0
  5 23  4  0
  6 18  2  0
  7 15  4  0
  7 16  1  0
  7 27  4  0
  8 18  1  0
 10 18  1  0
 10 20  1  0
 11 15  4  0
 11 26  1  0
 13 22  4  0
 16 19  1  0
 16 20  2  0
 17 19  4  0
 17 21  4  0
 19 22  4  0
 20 28  1  0
 25 27  4  0
M  END
$$$$

 Created by Python create_sdf_string function

 28 30  0  0  0  0  0  0  0  0999 V2000
   11.4592   11.2893   18.7941 C   0  0  0  0  0  0  0  0  0  0  0  0
    3.4202    7.9009   20.3866 C   0  0  0  0  0  0  0  0  0  0  0  0
   13.5280   10.3522   19.3586 C   0  0  0  0  0  0  0  0  0  0  0  0
    9.6923    5.6468   22.7891 C   0  0  0  0  0  0  0  0  0  0  0  0
   11.7756   10.2554   20.8841 N   0  0  0  0  0  0  0  0  0  0  0  0
    8.9876   11.9370   19.8757 O   0  0  0  0  0  0  0  0  0  0  0  0
    6.0167    8.4478   21.1089 C   0  0  0  0  0  0  0  0  0  0  0  0
   11.0002   10.8890   20.0262 C   0  0  0  0  0  0  0  0  0  0  0  0
    2.1721    7.7393   20.0315 O   0  0  0  0  0  0  0  0  0  0  0  0
    9.1107   10.3880   21.3769 N   0  0  0  0  0  0  0  0  0  0  0  0
    3.9102    9.2008   20.3124 C   0  0  0  0  0  0  0  0  0  0  0  0
   12.7292   10.9960   18.4597 C   0  0  0  0  0  0  0  0  0  0  0  0
    9.3798    6.6793   23.6625 C   0  0  0  0  0  0  0  0  0  0  0  0
   14.7425   10.0739   19.0802 O   0  0  0  0  0  0  0  0  0  0  0  0
    5.1894    9.4673   20.7118 C   0  0  0  0  0  0  0  0  0  0  0  0
    7.3773    8.8224   21.4870 C   0  0  0  0  0  0  0  0  0  0  0  0
    8.4391    6.6439   21.0235 C   0  0  0  0  0  0  0  0  0  0  0  0
    9.6494   11.1353   20.4167 C   0  0  0  0  0  0  0  0  0  0  0  0
    8.1431    7.6829   21.9046 C   0  0  0  0  0  0  0  0  0  0  0  0
    7.7796   10.1314   21.5115 N   0  0  0  0  0  0  0  0  0  0  0  0
    9.2768    5.6183   21.4437 C   0  0  0  0  0  0  0  0  0  0  0  0
    8.6315    7.7322   23.1768 C   0  0  0  0  0  0  0  0  0  0  0  0
   13.0537    9.9821   20.5781 C   0  0  0  0  0  0  0  0  0  0  0  0
   10.3850    4.6575   23.2386 O   0  0  0  0  0  0  0  0  0  0  0  0
    4.2069    6.8450   20.7994 C   0  0  0  0  0  0  0  0  0  0  0  0
    3.0726   10.1043   19.8522 O   0  0  0  0  0  0  0  0  0  0  0  0
    5.5057    7.1196   21.1155 C   0  0  0  0  0  0  0  0  0  0  0  0
    7.0367   11.0229   21.9948 O   0  0  0  0  0  0  0  0  0  0  0  0
  1  8  4  0
  1 12  4  0
  2  9  1  0
  2 11  4  0
  2 25  4  0
  3 12  4  0
  3 14  1  0
  3 23  4  0
  4 13  4  0
  4 21  4  0
  4 24  1  0
  5  8  4  0
  5 23  4  0
  6 18  2  0
  7 15  4  0
  7 16  1  0
  7 27  4  0
  8 18  1  0
 10 18  1  0
 10 20  1  0
 11 15  4  0
 11 26  1  0
 13 22  4  0
 16 19  1  0
 16 20  2  0
 17 19  4  0
 17 21  4  0
 19 22  4  0
 20 28  1  0
 25 27  4  0
M  END
$$$$

 Created by Python create_sdf_string function

 28 30  0  0  0  0  0  0  0  0999 V2000
   11.4592   11.2893   18.7941 C   0  0  0  0  0  0  0  0  0  0  0  0
    3.4202    7.9009   20.3866 C   0  0  0  0  0  0  0  0  0  0  0  0
   13.5280   10.3522   19.3586 C   0  0  0  0  0  0  0  0  0  0  0  0
    9.6923    5.6468   22.7891 C   0  0  0  0  0  0  0  0  0  0  0  0
   11.7756   10.2554   20.8841 N   0  0  0  0  0  0  0  0  0  0  0  0
    8.9876   11.9370   19.8757 O   0  0  0  0  0  0  0  0  0  0  0  0
    6.0167    8.4478   21.1089 C   0  0  0  0  0  0  0  0  0  0  0  0
   11.0002   10.8890   20.0262 C   0  0  0  0  0  0  0  0  0  0  0  0
    2.1721    7.7393   20.0315 O   0  0  0  0  0  0  0  0  0  0  0  0
    9.1107   10.3880   21.3769 N   0  0  0  0  0  0  0  0  0  0  0  0
    3.9102    9.2008   20.3124 C   0  0  0  0  0  0  0  0  0  0  0  0
   12.7292   10.9960   18.4597 C   0  0  0  0  0  0  0  0  0  0  0  0
    9.3798    6.6793   23.6625 C   0  0  0  0  0  0  0  0  0  0  0  0
   14.7425   10.0739   19.0802 O   0  0  0  0  0  0  0  0  0  0  0  0
    5.1894    9.4673   20.7118 C   0  0  0  0  0  0  0  0  0  0  0  0
    7.3773    8.8224   21.4870 C   0  0  0  0  0  0  0  0  0  0  0  0
    8.4391    6.6439   21.0235 C   0  0  0  0  0  0  0  0  0  0  0  0
    9.6494   11.1353   20.4167 C   0  0  0  0  0  0  0  0  0  0  0  0
    8.1431    7.6829   21.9046 C   0  0  0  0  0  0  0  0  0  0  0  0
    7.7796   10.1314   21.5115 N   0  0  0  0  0  0  0  0  0  0  0  0
    9.2768    5.6183   21.4437 C   0  0  0  0  0  0  0  0  0  0  0  0
    8.6315    7.7322   23.1768 C   0  0  0  0  0  0  0  0  0  0  0  0
   13.0537    9.9821   20.5781 C   0  0  0  0  0  0  0  0  0  0  0  0
   10.3850    4.6575   23.2386 O   0  0  0  0  0  0  0  0  0  0  0  0
    4.2069    6.8450   20.7994 C   0  0  0  0  0  0  0  0  0  0  0  0
    3.0726   10.1043   19.8522 O   0  0  0  0  0  0  0  0  0  0  0  0
    5.5057    7.1196   21.1155 C   0  0  0  0  0  0  0  0  0  0  0  0
    7.0367   11.0229   21.9948 O   0  0  0  0  0  0  0  0  0  0  0  0
  1  8  4  0
  1 12  4  0
  2  9  1  0
  2 11  4  0
  2 25  4  0
  3 12  4  0
  3 14  1  0
  3 23  4  0
  4 13  4  0
  4 21  4  0
  4 24  1  0
  5  8  4  0
  5 23  4  0
  6 18  2  0
  7 15  4  0
  7 16  1  0
  7 27  4  0
  8 18  1  0
 10 18  1  0
 10 20  1  0
 11 15  4  0
 11 26  1  0
 13 22  4  0
 16 19  1  0
 16 20  2  0
 17 19  4  0
 17 21  4  0
 19 22  4  0
 20 28  1  0
 25 27  4  0
M  END
$$$$

 Created by Python create_sdf_string function

 28 30  0  0  0  0  0  0  0  0999 V2000
   11.4592   11.2893   18.7941 C   0  0  0  0  0  0  0  0  0  0  0  0
    3.4202    7.9009   20.3866 C   0  0  0  0  0  0  0  0  0  0  0  0
   13.5280   10.3522   19.3586 C   0  0  0  0  0  0  0  0  0  0  0  0
    9.6923    5.6468   22.7891 C   0  0  0  0  0  0  0  0  0  0  0  0
   11.7756   10.2554   20.8841 N   0  0  0  0  0  0  0  0  0  0  0  0
    8.9876   11.9370   19.8757 O   0  0  0  0  0  0  0  0  0  0  0  0
    6.0167    8.4478   21.1089 C   0  0  0  0  0  0  0  0  0  0  0  0
   11.0002   10.8890   20.0262 C   0  0  0  0  0  0  0  0  0  0  0  0
    2.1721    7.7393   20.0315 O   0  0  0  0  0  0  0  0  0  0  0  0
    9.1107   10.3880   21.3769 N   0  0  0  0  0  0  0  0  0  0  0  0
    3.9102    9.2008   20.3124 C   0  0  0  0  0  0  0  0  0  0  0  0
   12.7292   10.9960   18.4597 C   0  0  0  0  0  0  0  0  0  0  0  0
    9.3798    6.6793   23.6625 C   0  0  0  0  0  0  0  0  0  0  0  0
   14.7425   10.0739   19.0802 O   0  0  0  0  0  0  0  0  0  0  0  0
    5.1894    9.4673   20.7118 C   0  0  0  0  0  0  0  0  0  0  0  0
    7.3773    8.8224   21.4870 C   0  0  0  0  0  0  0  0  0  0  0  0
    8.4391    6.6439   21.0235 C   0  0  0  0  0  0  0  0  0  0  0  0
    9.6494   11.1353   20.4167 C   0  0  0  0  0  0  0  0  0  0  0  0
    8.1431    7.6829   21.9046 C   0  0  0  0  0  0  0  0  0  0  0  0
    7.7796   10.1314   21.5115 N   0  0  0  0  0  0  0  0  0  0  0  0
    9.2768    5.6183   21.4437 C   0  0  0  0  0  0  0  0  0  0  0  0
    8.6315    7.7322   23.1768 C   0  0  0  0  0  0  0  0  0  0  0  0
   13.0537    9.9821   20.5781 C   0  0  0  0  0  0  0  0  0  0  0  0
   10.3850    4.6575   23.2386 O   0  0  0  0  0  0  0  0  0  0  0  0
    4.2069    6.8450   20.7994 C   0  0  0  0  0  0  0  0  0  0  0  0
    3.0726   10.1043   19.8522 O   0  0  0  0  0  0  0  0  0  0  0  0
    5.5057    7.1196   21.1155 C   0  0  0  0  0  0  0  0  0  0  0  0
    7.0367   11.0229   21.9948 O   0  0  0  0  0  0  0  0  0  0  0  0
  1  8  4  0
  1 12  4  0
  2  9  1  0
  2 11  4  0
  2 25  4  0
  3 12  4  0
  3 14  1  0
  3 23  4  0
  4 13  4  0
  4 21  4  0
  4 24  1  0
  5  8  4  0
  5 23  4  0
  6 18  2  0
  7 15  4  0
  7 16  1  0
  7 27  4  0
  8 18  1  0
 10 18  1  0
 10 20  1  0
 11 15  4  0
 11 26  1  0
 13 22  4  0
 16 19  1  0
 16 20  2  0
 17 19  4  0
 17 21  4  0
 19 22  4  0
 20 28  1  0
 25 27  4  0
M  END
$$$$

 Created by Python create_sdf_string function

 28 30  0  0  0  0  0  0  0  0999 V2000
   11.4592   11.2893   18.7941 C   0  0  0  0  0  0  0  0  0  0  0  0
    3.4202    7.9009   20.3866 C   0  0  0  0  0  0  0  0  0  0  0  0
   13.5280   10.3522   19.3586 C   0  0  0  0  0  0  0  0  0  0  0  0
    9.6923    5.6468   22.7891 C   0  0  0  0  0  0  0  0  0  0  0  0
   11.7756   10.2554   20.8841 N   0  0  0  0  0  0  0  0  0  0  0  0
    8.9876   11.9370   19.8757 O   0  0  0  0  0  0  0  0  0  0  0  0
    6.0167    8.4478   21.1089 C   0  0  0  0  0  0  0  0  0  0  0  0
   11.0002   10.8890   20.0262 C   0  0  0  0  0  0  0  0  0  0  0  0
    2.1721    7.7393   20.0315 O   0  0  0  0  0  0  0  0  0  0  0  0
    9.1107   10.3880   21.3769 N   0  0  0  0  0  0  0  0  0  0  0  0
    3.9102    9.2008   20.3124 C   0  0  0  0  0  0  0  0  0  0  0  0
   12.7292   10.9960   18.4597 C   0  0  0  0  0  0  0  0  0  0  0  0
    9.3798    6.6793   23.6625 C   0  0  0  0  0  0  0  0  0  0  0  0
   14.7425   10.0739   19.0802 O   0  0  0  0  0  0  0  0  0  0  0  0
    5.1894    9.4673   20.7118 C   0  0  0  0  0  0  0  0  0  0  0  0
    7.3773    8.8224   21.4870 C   0  0  0  0  0  0  0  0  0  0  0  0
    8.4391    6.6439   21.0235 C   0  0  0  0  0  0  0  0  0  0  0  0
    9.6494   11.1353   20.4167 C   0  0  0  0  0  0  0  0  0  0  0  0
    8.1431    7.6829   21.9046 C   0  0  0  0  0  0  0  0  0  0  0  0
    7.7796   10.1314   21.5115 N   0  0  0  0  0  0  0  0  0  0  0  0
    9.2768    5.6183   21.4437 C   0  0  0  0  0  0  0  0  0  0  0  0
    8.6315    7.7322   23.1768 C   0  0  0  0  0  0  0  0  0  0  0  0
   13.0537    9.9821   20.5781 C   0  0  0  0  0  0  0  0  0  0  0  0
   10.3850    4.6575   23.2386 O   0  0  0  0  0  0  0  0  0  0  0  0
    4.2069    6.8450   20.7994 C   0  0  0  0  0  0  0  0  0  0  0  0
    3.0726   10.1043   19.8522 O   0  0  0  0  0  0  0  0  0  0  0  0
    5.5057    7.1196   21.1155 C   0  0  0  0  0  0  0  0  0  0  0  0
    7.0367   11.0229   21.9948 O   0  0  0  0  0  0  0  0  0  0  0  0
  1  8  4  0
  1 12  4  0
  2  9  1  0
  2 11  4  0
  2 25  4  0
  3 12  4  0
  3 14  1  0
  3 23  4  0
  4 13  4  0
  4 21  4  0
  4 24  1  0
  5  8  4  0
  5 23  4  0
  6 18  2  0
  7 15  4  0
  7 16  1  0
  7 27  4  0
  8 18  1  0
 10 18  1  0
 10 20  1  0
 11 15  4  0
 11 26  1  0
 13 22  4  0
 16 19  1  0
 16 20  2  0
 17 19  4  0
 17 21  4  0
 19 22  4  0
 20 28  1  0
 25 27  4  0
M  END
$$$$

 Created by Python create_sdf_string function

 28 30  0  0  0  0  0  0  0  0999 V2000
   11.4592   11.2893   18.7941 C   0  0  0  0  0  0  0  0  0  0  0  0
    3.4202    7.9009   20.3866 C   0  0  0  0  0  0  0  0  0  0  0  0
   13.5280   10.3522   19.3586 C   0  0  0  0  0  0  0  0  0  0  0  0
    9.6923    5.6468   22.7891 C   0  0  0  0  0  0  0  0  0  0  0  0
   11.7756   10.2554   20.8841 N   0  0  0  0  0  0  0  0  0  0  0  0
    8.9876   11.9370   19.8757 O   0  0  0  0  0  0  0  0  0  0  0  0
    6.0167    8.4478   21.1089 C   0  0  0  0  0  0  0  0  0  0  0  0
   11.0002   10.8890   20.0262 C   0  0  0  0  0  0  0  0  0  0  0  0
    2.1721    7.7393   20.0315 O   0  0  0  0  0  0  0  0  0  0  0  0
    9.1107   10.3880   21.3769 N   0  0  0  0  0  0  0  0  0  0  0  0
    3.9102    9.2008   20.3124 C   0  0  0  0  0  0  0  0  0  0  0  0
   12.7292   10.9960   18.4597 C   0  0  0  0  0  0  0  0  0  0  0  0
    9.3798    6.6793   23.6625 C   0  0  0  0  0  0  0  0  0  0  0  0
   14.7425   10.0739   19.0802 O   0  0  0  0  0  0  0  0  0  0  0  0
    5.1894    9.4673   20.7118 C   0  0  0  0  0  0  0  0  0  0  0  0
    7.3773    8.8224   21.4870 C   0  0  0  0  0  0  0  0  0  0  0  0
    8.4391    6.6439   21.0235 C   0  0  0  0  0  0  0  0  0  0  0  0
    9.6494   11.1353   20.4167 C   0  0  0  0  0  0  0  0  0  0  0  0
    8.1431    7.6829   21.9046 C   0  0  0  0  0  0  0  0  0  0  0  0
    7.7796   10.1314   21.5115 N   0  0  0  0  0  0  0  0  0  0  0  0
    9.2768    5.6183   21.4437 C   0  0  0  0  0  0  0  0  0  0  0  0
    8.6315    7.7322   23.1768 C   0  0  0  0  0  0  0  0  0  0  0  0
   13.0537    9.9821   20.5781 C   0  0  0  0  0  0  0  0  0  0  0  0
   10.3850    4.6575   23.2386 O   0  0  0  0  0  0  0  0  0  0  0  0
    4.2069    6.8450   20.7994 C   0  0  0  0  0  0  0  0  0  0  0  0
    3.0726   10.1043   19.8522 O   0  0  0  0  0  0  0  0  0  0  0  0
    5.5057    7.1196   21.1155 C   0  0  0  0  0  0  0  0  0  0  0  0
    7.0367   11.0229   21.9948 O   0  0  0  0  0  0  0  0  0  0  0  0
  1  8  4  0
  1 12  4  0
  2  9  1  0
  2 11  4  0
  2 25  4  0
  3 12  4  0
  3 14  1  0
  3 23  4  0
  4 13  4  0
  4 21  4  0
  4 24  1  0
  5  8  4  0
  5 23  4  0
  6 18  2  0
  7 15  4  0
  7 16  1  0
  7 27  4  0
  8 18  1  0
 10 18  1  0
 10 20  1  0
 11 15  4  0
 11 26  1  0
 13 22  4  0
 16 19  1  0
 16 20  2  0
 17 19  4  0
 17 21  4  0
 19 22  4  0
 20 28  1  0
 25 27  4  0
M  END
$$$$

 Created by Python create_sdf_string function

 28 30  0  0  0  0  0  0  0  0999 V2000
   11.4592   11.2893   18.7941 C   0  0  0  0  0  0  0  0  0  0  0  0
    3.4202    7.9009   20.3866 C   0  0  0  0  0  0  0  0  0  0  0  0
   13.5280   10.3522   19.3586 C   0  0  0  0  0  0  0  0  0  0  0  0
    9.6923    5.6468   22.7891 C   0  0  0  0  0  0  0  0  0  0  0  0
   11.7756   10.2554   20.8841 N   0  0  0  0  0  0  0  0  0  0  0  0
    8.9876   11.9370   19.8757 O   0  0  0  0  0  0  0  0  0  0  0  0
    6.0167    8.4478   21.1089 C   0  0  0  0  0  0  0  0  0  0  0  0
   11.0002   10.8890   20.0262 C   0  0  0  0  0  0  0  0  0  0  0  0
    2.1721    7.7393   20.0315 O   0  0  0  0  0  0  0  0  0  0  0  0
    9.1107   10.3880   21.3769 N   0  0  0  0  0  0  0  0  0  0  0  0
    3.9102    9.2008   20.3124 C   0  0  0  0  0  0  0  0  0  0  0  0
   12.7292   10.9960   18.4597 C   0  0  0  0  0  0  0  0  0  0  0  0
    9.3798    6.6793   23.6625 C   0  0  0  0  0  0  0  0  0  0  0  0
   14.7425   10.0739   19.0802 O   0  0  0  0  0  0  0  0  0  0  0  0
    5.1894    9.4673   20.7118 C   0  0  0  0  0  0  0  0  0  0  0  0
    7.3773    8.8224   21.4870 C   0  0  0  0  0  0  0  0  0  0  0  0
    8.4391    6.6439   21.0235 C   0  0  0  0  0  0  0  0  0  0  0  0
    9.6494   11.1353   20.4167 C   0  0  0  0  0  0  0  0  0  0  0  0
    8.1431    7.6829   21.9046 C   0  0  0  0  0  0  0  0  0  0  0  0
    7.7796   10.1314   21.5115 N   0  0  0  0  0  0  0  0  0  0  0  0
    9.2768    5.6183   21.4437 C   0  0  0  0  0  0  0  0  0  0  0  0
    8.6315    7.7322   23.1768 C   0  0  0  0  0  0  0  0  0  0  0  0
   13.0537    9.9821   20.5781 C   0  0  0  0  0  0  0  0  0  0  0  0
   10.3850    4.6575   23.2386 O   0  0  0  0  0  0  0  0  0  0  0  0
    4.2069    6.8450   20.7994 C   0  0  0  0  0  0  0  0  0  0  0  0
    3.0726   10.1043   19.8522 O   0  0  0  0  0  0  0  0  0  0  0  0
    5.5057    7.1196   21.1155 C   0  0  0  0  0  0  0  0  0  0  0  0
    7.0367   11.0229   21.9948 O   0  0  0  0  0  0  0  0  0  0  0  0
  1  8  4  0
  1 12  4  0
  2  9  1  0
  2 11  4  0
  2 25  4  0
  3 12  4  0
  3 14  1  0
  3 23  4  0
  4 13  4  0
  4 21  4  0
  4 24  1  0
  5  8  4  0
  5 23  4  0
  6 18  2  0
  7 15  4  0
  7 16  1  0
  7 27  4  0
  8 18  1  0
 10 18  1  0
 10 20  1  0
 11 15  4  0
 11 26  1  0
 13 22  4  0
 16 19  1  0
 16 20  2  0
 17 19  4  0
 17 21  4  0
 19 22  4  0
 20 28  1  0
 25 27  4  0
M  END
$$$$

 Created by Python create_sdf_string function

 28 30  0  0  0  0  0  0  0  0999 V2000
   11.4592   11.2893   18.7941 C   0  0  0  0  0  0  0  0  0  0  0  0
    3.4202    7.9009   20.3866 C   0  0  0  0  0  0  0  0  0  0  0  0
   13.5280   10.3522   19.3586 C   0  0  0  0  0  0  0  0  0  0  0  0
    9.6923    5.6468   22.7891 C   0  0  0  0  0  0  0  0  0  0  0  0
   11.7756   10.2554   20.8841 N   0  0  0  0  0  0  0  0  0  0  0  0
    8.9876   11.9370   19.8757 O   0  0  0  0  0  0  0  0  0  0  0  0
    6.0167    8.4478   21.1089 C   0  0  0  0  0  0  0  0  0  0  0  0
   11.0002   10.8890   20.0262 C   0  0  0  0  0  0  0  0  0  0  0  0
    2.1721    7.7393   20.0315 O   0  0  0  0  0  0  0  0  0  0  0  0
    9.1107   10.3880   21.3769 N   0  0  0  0  0  0  0  0  0  0  0  0
    3.9102    9.2008   20.3124 C   0  0  0  0  0  0  0  0  0  0  0  0
   12.7292   10.9960   18.4597 C   0  0  0  0  0  0  0  0  0  0  0  0
    9.3798    6.6793   23.6625 C   0  0  0  0  0  0  0  0  0  0  0  0
   14.7425   10.0739   19.0802 O   0  0  0  0  0  0  0  0  0  0  0  0
    5.1894    9.4673   20.7118 C   0  0  0  0  0  0  0  0  0  0  0  0
    7.3773    8.8224   21.4870 C   0  0  0  0  0  0  0  0  0  0  0  0
    8.4391    6.6439   21.0235 C   0  0  0  0  0  0  0  0  0  0  0  0
    9.6494   11.1353   20.4167 C   0  0  0  0  0  0  0  0  0  0  0  0
    8.1431    7.6829   21.9046 C   0  0  0  0  0  0  0  0  0  0  0  0
    7.7796   10.1314   21.5115 N   0  0  0  0  0  0  0  0  0  0  0  0
    9.2768    5.6183   21.4437 C   0  0  0  0  0  0  0  0  0  0  0  0
    8.6315    7.7322   23.1768 C   0  0  0  0  0  0  0  0  0  0  0  0
   13.0537    9.9821   20.5781 C   0  0  0  0  0  0  0  0  0  0  0  0
   10.3850    4.6575   23.2386 O   0  0  0  0  0  0  0  0  0  0  0  0
    4.2069    6.8450   20.7994 C   0  0  0  0  0  0  0  0  0  0  0  0
    3.0726   10.1043   19.8522 O   0  0  0  0  0  0  0  0  0  0  0  0
    5.5057    7.1196   21.1155 C   0  0  0  0  0  0  0  0  0  0  0  0
    7.0367   11.0229   21.9948 O   0  0  0  0  0  0  0  0  0  0  0  0
  1  8  4  0
  1 12  4  0
  2  9  1  0
  2 11  4  0
  2 25  4  0
  3 12  4  0
  3 14  1  0
  3 23  4  0
  4 13  4  0
  4 21  4  0
  4 24  1  0
  5  8  4  0
  5 23  4  0
  6 18  2  0
  7 15  4  0
  7 16  1  0
  7 27  4  0
  8 18  1  0
 10 18  1  0
 10 20  1  0
 11 15  4  0
 11 26  1  0
 13 22  4  0
 16 19  1  0
 16 20  2  0
 17 19  4  0
 17 21  4  0
 19 22  4  0
 20 28  1  0
 25 27  4  0
M  END
$$$$

 Created by Python create_sdf_string function

 28 30  0  0  0  0  0  0  0  0999 V2000
   11.4592   11.2893   18.7941 C   0  0  0  0  0  0  0  0  0  0  0  0
    3.4202    7.9009   20.3866 C   0  0  0  0  0  0  0  0  0  0  0  0
   13.5280   10.3522   19.3586 C   0  0  0  0  0  0  0  0  0  0  0  0
    9.6923    5.6468   22.7891 C   0  0  0  0  0  0  0  0  0  0  0  0
   11.7756   10.2554   20.8841 N   0  0  0  0  0  0  0  0  0  0  0  0
    8.9876   11.9370   19.8757 O   0  0  0  0  0  0  0  0  0  0  0  0
    6.0167    8.4478   21.1089 C   0  0  0  0  0  0  0  0  0  0  0  0
   11.0002   10.8890   20.0262 C   0  0  0  0  0  0  0  0  0  0  0  0
    2.1721    7.7393   20.0315 O   0  0  0  0  0  0  0  0  0  0  0  0
    9.1107   10.3880   21.3769 N   0  0  0  0  0  0  0  0  0  0  0  0
    3.9102    9.2008   20.3124 C   0  0  0  0  0  0  0  0  0  0  0  0
   12.7292   10.9960   18.4597 C   0  0  0  0  0  0  0  0  0  0  0  0
    9.3798    6.6793   23.6625 C   0  0  0  0  0  0  0  0  0  0  0  0
   14.7425   10.0739   19.0802 O   0  0  0  0  0  0  0  0  0  0  0  0
    5.1894    9.4673   20.7118 C   0  0  0  0  0  0  0  0  0  0  0  0
    7.3773    8.8224   21.4870 C   0  0  0  0  0  0  0  0  0  0  0  0
    8.4391    6.6439   21.0235 C   0  0  0  0  0  0  0  0  0  0  0  0
    9.6494   11.1353   20.4167 C   0  0  0  0  0  0  0  0  0  0  0  0
    8.1431    7.6829   21.9046 C   0  0  0  0  0  0  0  0  0  0  0  0
    7.7796   10.1314   21.5115 N   0  0  0  0  0  0  0  0  0  0  0  0
    9.2768    5.6183   21.4437 C   0  0  0  0  0  0  0  0  0  0  0  0
    8.6315    7.7322   23.1768 C   0  0  0  0  0  0  0  0  0  0  0  0
   13.0537    9.9821   20.5781 C   0  0  0  0  0  0  0  0  0  0  0  0
   10.3850    4.6575   23.2386 O   0  0  0  0  0  0  0  0  0  0  0  0
    4.2069    6.8450   20.7994 C   0  0  0  0  0  0  0  0  0  0  0  0
    3.0726   10.1043   19.8522 O   0  0  0  0  0  0  0  0  0  0  0  0
    5.5057    7.1196   21.1155 C   0  0  0  0  0  0  0  0  0  0  0  0
    7.0367   11.0229   21.9948 O   0  0  0  0  0  0  0  0  0  0  0  0
  1  8  4  0
  1 12  4  0
  2  9  1  0
  2 11  4  0
  2 25  4  0
  3 12  4  0
  3 14  1  0
  3 23  4  0
  4 13  4  0
  4 21  4  0
  4 24  1  0
  5  8  4  0
  5 23  4  0
  6 18  2  0
  7 15  4  0
  7 16  1  0
  7 27  4  0
  8 18  1  0
 10 18  1  0
 10 20  1  0
 11 15  4  0
 11 26  1  0
 13 22  4  0
 16 19  1  0
 16 20  2  0
 17 19  4  0
 17 21  4  0
 19 22  4  0
 20 28  1  0
 25 27  4  0
M  END
$$$$

 Created by Python create_sdf_string function

 28 30  0  0  0  0  0  0  0  0999 V2000
   11.4592   11.2893   18.7941 C   0  0  0  0  0  0  0  0  0  0  0  0
    3.4202    7.9009   20.3866 C   0  0  0  0  0  0  0  0  0  0  0  0
   13.5280   10.3522   19.3586 C   0  0  0  0  0  0  0  0  0  0  0  0
    9.6923    5.6468   22.7891 C   0  0  0  0  0  0  0  0  0  0  0  0
   11.7756   10.2554   20.8841 N   0  0  0  0  0  0  0  0  0  0  0  0
    8.9876   11.9370   19.8757 O   0  0  0  0  0  0  0  0  0  0  0  0
    6.0167    8.4478   21.1089 C   0  0  0  0  0  0  0  0  0  0  0  0
   11.0002   10.8890   20.0262 C   0  0  0  0  0  0  0  0  0  0  0  0
    2.1721    7.7393   20.0315 O   0  0  0  0  0  0  0  0  0  0  0  0
    9.1107   10.3880   21.3769 N   0  0  0  0  0  0  0  0  0  0  0  0
    3.9102    9.2008   20.3124 C   0  0  0  0  0  0  0  0  0  0  0  0
   12.7292   10.9960   18.4597 C   0  0  0  0  0  0  0  0  0  0  0  0
    9.3798    6.6793   23.6625 C   0  0  0  0  0  0  0  0  0  0  0  0
   14.7425   10.0739   19.0802 O   0  0  0  0  0  0  0  0  0  0  0  0
    5.1894    9.4673   20.7118 C   0  0  0  0  0  0  0  0  0  0  0  0
    7.3773    8.8224   21.4870 C   0  0  0  0  0  0  0  0  0  0  0  0
    8.4391    6.6439   21.0235 C   0  0  0  0  0  0  0  0  0  0  0  0
    9.6494   11.1353   20.4167 C   0  0  0  0  0  0  0  0  0  0  0  0
    8.1431    7.6829   21.9046 C   0  0  0  0  0  0  0  0  0  0  0  0
    7.7796   10.1314   21.5115 N   0  0  0  0  0  0  0  0  0  0  0  0
    9.2768    5.6183   21.4437 C   0  0  0  0  0  0  0  0  0  0  0  0
    8.6315    7.7322   23.1768 C   0  0  0  0  0  0  0  0  0  0  0  0
   13.0537    9.9821   20.5781 C   0  0  0  0  0  0  0  0  0  0  0  0
   10.3850    4.6575   23.2386 O   0  0  0  0  0  0  0  0  0  0  0  0
    4.2069    6.8450   20.7994 C   0  0  0  0  0  0  0  0  0  0  0  0
    3.0726   10.1043   19.8522 O   0  0  0  0  0  0  0  0  0  0  0  0
    5.5057    7.1196   21.1155 C   0  0  0  0  0  0  0  0  0  0  0  0
    7.0367   11.0229   21.9948 O   0  0  0  0  0  0  0  0  0  0  0  0
  1  8  4  0
  1 12  4  0
  2  9  1  0
  2 11  4  0
  2 25  4  0
  3 12  4  0
  3 14  1  0
  3 23  4  0
  4 13  4  0
  4 21  4  0
  4 24  1  0
  5  8  4  0
  5 23  4  0
  6 18  2  0
  7 15  4  0
  7 16  1  0
  7 27  4  0
  8 18  1  0
 10 18  1  0
 10 20  1  0
 11 15  4  0
 11 26  1  0
 13 22  4  0
 16 19  1  0
 16 20  2  0
 17 19  4  0
 17 21  4  0
 19 22  4  0
 20 28  1  0
 25 27  4  0
M  END
$$$$

 Created by Python create_sdf_string function

 28 30  0  0  0  0  0  0  0  0999 V2000
   11.4592   11.2893   18.7941 C   0  0  0  0  0  0  0  0  0  0  0  0
    3.4202    7.9009   20.3866 C   0  0  0  0  0  0  0  0  0  0  0  0
   13.5280   10.3522   19.3586 C   0  0  0  0  0  0  0  0  0  0  0  0
    9.6923    5.6468   22.7891 C   0  0  0  0  0  0  0  0  0  0  0  0
   11.7756   10.2554   20.8841 N   0  0  0  0  0  0  0  0  0  0  0  0
    8.9876   11.9370   19.8757 O   0  0  0  0  0  0  0  0  0  0  0  0
    6.0167    8.4478   21.1089 C   0  0  0  0  0  0  0  0  0  0  0  0
   11.0002   10.8890   20.0262 C   0  0  0  0  0  0  0  0  0  0  0  0
    2.1721    7.7393   20.0315 O   0  0  0  0  0  0  0  0  0  0  0  0
    9.1107   10.3880   21.3769 N   0  0  0  0  0  0  0  0  0  0  0  0
    3.9102    9.2008   20.3124 C   0  0  0  0  0  0  0  0  0  0  0  0
   12.7292   10.9960   18.4597 C   0  0  0  0  0  0  0  0  0  0  0  0
    9.3798    6.6793   23.6625 C   0  0  0  0  0  0  0  0  0  0  0  0
   14.7425   10.0739   19.0802 O   0  0  0  0  0  0  0  0  0  0  0  0
    5.1894    9.4673   20.7118 C   0  0  0  0  0  0  0  0  0  0  0  0
    7.3773    8.8224   21.4870 C   0  0  0  0  0  0  0  0  0  0  0  0
    8.4391    6.6439   21.0235 C   0  0  0  0  0  0  0  0  0  0  0  0
    9.6494   11.1353   20.4167 C   0  0  0  0  0  0  0  0  0  0  0  0
    8.1431    7.6829   21.9046 C   0  0  0  0  0  0  0  0  0  0  0  0
    7.7796   10.1314   21.5115 N   0  0  0  0  0  0  0  0  0  0  0  0
    9.2768    5.6183   21.4437 C   0  0  0  0  0  0  0  0  0  0  0  0
    8.6315    7.7322   23.1768 C   0  0  0  0  0  0  0  0  0  0  0  0
   13.0537    9.9821   20.5781 C   0  0  0  0  0  0  0  0  0  0  0  0
   10.3850    4.6575   23.2386 O   0  0  0  0  0  0  0  0  0  0  0  0
    4.2069    6.8450   20.7994 C   0  0  0  0  0  0  0  0  0  0  0  0
    3.0726   10.1043   19.8522 O   0  0  0  0  0  0  0  0  0  0  0  0
    5.5057    7.1196   21.1155 C   0  0  0  0  0  0  0  0  0  0  0  0
    7.0367   11.0229   21.9948 O   0  0  0  0  0  0  0  0  0  0  0  0
  1  8  4  0
  1 12  4  0
  2  9  1  0
  2 11  4  0
  2 25  4  0
  3 12  4  0
  3 14  1  0
  3 23  4  0
  4 13  4  0
  4 21  4  0
  4 24  1  0
  5  8  4  0
  5 23  4  0
  6 18  2  0
  7 15  4  0
  7 16  1  0
  7 27  4  0
  8 18  1  0
 10 18  1  0
 10 20  1  0
 11 15  4  0
 11 26  1  0
 13 22  4  0
 16 19  1  0
 16 20  2  0
 17 19  4  0
 17 21  4  0
 19 22  4  0
 20 28  1  0
 25 27  4  0
M  END
$$$$

 Created by Python create_sdf_string function

 28 30  0  0  0  0  0  0  0  0999 V2000
   11.4592   11.2893   18.7941 C   0  0  0  0  0  0  0  0  0  0  0  0
    3.4202    7.9009   20.3866 C   0  0  0  0  0  0  0  0  0  0  0  0
   13.5280   10.3522   19.3586 C   0  0  0  0  0  0  0  0  0  0  0  0
    9.6923    5.6468   22.7891 C   0  0  0  0  0  0  0  0  0  0  0  0
   11.7756   10.2554   20.8841 N   0  0  0  0  0  0  0  0  0  0  0  0
    8.9876   11.9370   19.8757 O   0  0  0  0  0  0  0  0  0  0  0  0
    6.0167    8.4478   21.1089 C   0  0  0  0  0  0  0  0  0  0  0  0
   11.0002   10.8890   20.0262 C   0  0  0  0  0  0  0  0  0  0  0  0
    2.1721    7.7393   20.0315 O   0  0  0  0  0  0  0  0  0  0  0  0
    9.1107   10.3880   21.3769 N   0  0  0  0  0  0  0  0  0  0  0  0
    3.9102    9.2008   20.3124 C   0  0  0  0  0  0  0  0  0  0  0  0
   12.7292   10.9960   18.4597 C   0  0  0  0  0  0  0  0  0  0  0  0
    9.3798    6.6793   23.6625 C   0  0  0  0  0  0  0  0  0  0  0  0
   14.7425   10.0739   19.0802 O   0  0  0  0  0  0  0  0  0  0  0  0
    5.1894    9.4673   20.7118 C   0  0  0  0  0  0  0  0  0  0  0  0
    7.3773    8.8224   21.4870 C   0  0  0  0  0  0  0  0  0  0  0  0
    8.4391    6.6439   21.0235 C   0  0  0  0  0  0  0  0  0  0  0  0
    9.6494   11.1353   20.4167 C   0  0  0  0  0  0  0  0  0  0  0  0
    8.1431    7.6829   21.9046 C   0  0  0  0  0  0  0  0  0  0  0  0
    7.7796   10.1314   21.5115 N   0  0  0  0  0  0  0  0  0  0  0  0
    9.2768    5.6183   21.4437 C   0  0  0  0  0  0  0  0  0  0  0  0
    8.6315    7.7322   23.1768 C   0  0  0  0  0  0  0  0  0  0  0  0
   13.0537    9.9821   20.5781 C   0  0  0  0  0  0  0  0  0  0  0  0
   10.3850    4.6575   23.2386 O   0  0  0  0  0  0  0  0  0  0  0  0
    4.2069    6.8450   20.7994 C   0  0  0  0  0  0  0  0  0  0  0  0
    3.0726   10.1043   19.8522 O   0  0  0  0  0  0  0  0  0  0  0  0
    5.5057    7.1196   21.1155 C   0  0  0  0  0  0  0  0  0  0  0  0
    7.0367   11.0229   21.9948 O   0  0  0  0  0  0  0  0  0  0  0  0
  1  8  4  0
  1 12  4  0
  2  9  1  0
  2 11  4  0
  2 25  4  0
  3 12  4  0
  3 14  1  0
  3 23  4  0
  4 13  4  0
  4 21  4  0
  4 24  1  0
  5  8  4  0
  5 23  4  0
  6 18  2  0
  7 15  4  0
  7 16  1  0
  7 27  4  0
  8 18  1  0
 10 18  1  0
 10 20  1  0
 11 15  4  0
 11 26  1  0
 13 22  4  0
 16 19  1  0
 16 20  2  0
 17 19  4  0
 17 21  4  0
 19 22  4  0
 20 28  1  0
 25 27  4  0
M  END
$$$$

 Created by Python create_sdf_string function

 28 30  0  0  0  0  0  0  0  0999 V2000
   11.4592   11.2893   18.7941 C   0  0  0  0  0  0  0  0  0  0  0  0
    3.4202    7.9009   20.3866 C   0  0  0  0  0  0  0  0  0  0  0  0
   13.5280   10.3522   19.3586 C   0  0  0  0  0  0  0  0  0  0  0  0
    9.6923    5.6468   22.7891 C   0  0  0  0  0  0  0  0  0  0  0  0
   11.7756   10.2554   20.8841 N   0  0  0  0  0  0  0  0  0  0  0  0
    8.9876   11.9370   19.8757 O   0  0  0  0  0  0  0  0  0  0  0  0
    6.0167    8.4478   21.1089 C   0  0  0  0  0  0  0  0  0  0  0  0
   11.0002   10.8890   20.0262 C   0  0  0  0  0  0  0  0  0  0  0  0
    2.1721    7.7393   20.0315 O   0  0  0  0  0  0  0  0  0  0  0  0
    9.1107   10.3880   21.3769 N   0  0  0  0  0  0  0  0  0  0  0  0
    3.9102    9.2008   20.3124 C   0  0  0  0  0  0  0  0  0  0  0  0
   12.7292   10.9960   18.4597 C   0  0  0  0  0  0  0  0  0  0  0  0
    9.3798    6.6793   23.6625 C   0  0  0  0  0  0  0  0  0  0  0  0
   14.7425   10.0739   19.0802 O   0  0  0  0  0  0  0  0  0  0  0  0
    5.1894    9.4673   20.7118 C   0  0  0  0  0  0  0  0  0  0  0  0
    7.3773    8.8224   21.4870 C   0  0  0  0  0  0  0  0  0  0  0  0
    8.4391    6.6439   21.0235 C   0  0  0  0  0  0  0  0  0  0  0  0
    9.6494   11.1353   20.4167 C   0  0  0  0  0  0  0  0  0  0  0  0
    8.1431    7.6829   21.9046 C   0  0  0  0  0  0  0  0  0  0  0  0
    7.7796   10.1314   21.5115 N   0  0  0  0  0  0  0  0  0  0  0  0
    9.2768    5.6183   21.4437 C   0  0  0  0  0  0  0  0  0  0  0  0
    8.6315    7.7322   23.1768 C   0  0  0  0  0  0  0  0  0  0  0  0
   13.0537    9.9821   20.5781 C   0  0  0  0  0  0  0  0  0  0  0  0
   10.3850    4.6575   23.2386 O   0  0  0  0  0  0  0  0  0  0  0  0
    4.2069    6.8450   20.7994 C   0  0  0  0  0  0  0  0  0  0  0  0
    3.0726   10.1043   19.8522 O   0  0  0  0  0  0  0  0  0  0  0  0
    5.5057    7.1196   21.1155 C   0  0  0  0  0  0  0  0  0  0  0  0
    7.0367   11.0229   21.9948 O   0  0  0  0  0  0  0  0  0  0  0  0
  1  8  4  0
  1 12  4  0
  2  9  1  0
  2 11  4  0
  2 25  4  0
  3 12  4  0
  3 14  1  0
  3 23  4  0
  4 13  4  0
  4 21  4  0
  4 24  1  0
  5  8  4  0
  5 23  4  0
  6 18  2  0
  7 15  4  0
  7 16  1  0
  7 27  4  0
  8 18  1  0
 10 18  1  0
 10 20  1  0
 11 15  4  0
 11 26  1  0
 13 22  4  0
 16 19  1  0
 16 20  2  0
 17 19  4  0
 17 21  4  0
 19 22  4  0
 20 28  1  0
 25 27  4  0
M  END
$$$$

 Created by Python create_sdf_string function

 28 30  0  0  0  0  0  0  0  0999 V2000
   11.4592   11.2893   18.7941 C   0  0  0  0  0  0  0  0  0  0  0  0
    3.4202    7.9009   20.3866 C   0  0  0  0  0  0  0  0  0  0  0  0
   13.5280   10.3522   19.3586 C   0  0  0  0  0  0  0  0  0  0  0  0
    9.6923    5.6468   22.7891 C   0  0  0  0  0  0  0  0  0  0  0  0
   11.7756   10.2554   20.8841 N   0  0  0  0  0  0  0  0  0  0  0  0
    8.9876   11.9370   19.8757 O   0  0  0  0  0  0  0  0  0  0  0  0
    6.0167    8.4478   21.1089 C   0  0  0  0  0  0  0  0  0  0  0  0
   11.0002   10.8890   20.0262 C   0  0  0  0  0  0  0  0  0  0  0  0
    2.1721    7.7393   20.0315 O   0  0  0  0  0  0  0  0  0  0  0  0
    9.1107   10.3880   21.3769 N   0  0  0  0  0  0  0  0  0  0  0  0
    3.9102    9.2008   20.3124 C   0  0  0  0  0  0  0  0  0  0  0  0
   12.7292   10.9960   18.4597 C   0  0  0  0  0  0  0  0  0  0  0  0
    9.3798    6.6793   23.6625 C   0  0  0  0  0  0  0  0  0  0  0  0
   14.7425   10.0739   19.0802 O   0  0  0  0  0  0  0  0  0  0  0  0
    5.1894    9.4673   20.7118 C   0  0  0  0  0  0  0  0  0  0  0  0
    7.3773    8.8224   21.4870 C   0  0  0  0  0  0  0  0  0  0  0  0
    8.4391    6.6439   21.0235 C   0  0  0  0  0  0  0  0  0  0  0  0
    9.6494   11.1353   20.4167 C   0  0  0  0  0  0  0  0  0  0  0  0
    8.1431    7.6829   21.9046 C   0  0  0  0  0  0  0  0  0  0  0  0
    7.7796   10.1314   21.5115 N   0  0  0  0  0  0  0  0  0  0  0  0
    9.2768    5.6183   21.4437 C   0  0  0  0  0  0  0  0  0  0  0  0
    8.6315    7.7322   23.1768 C   0  0  0  0  0  0  0  0  0  0  0  0
   13.0537    9.9821   20.5781 C   0  0  0  0  0  0  0  0  0  0  0  0
   10.3850    4.6575   23.2386 O   0  0  0  0  0  0  0  0  0  0  0  0
    4.2069    6.8450   20.7994 C   0  0  0  0  0  0  0  0  0  0  0  0
    3.0726   10.1043   19.8522 O   0  0  0  0  0  0  0  0  0  0  0  0
    5.5057    7.1196   21.1155 C   0  0  0  0  0  0  0  0  0  0  0  0
    7.0367   11.0229   21.9948 O   0  0  0  0  0  0  0  0  0  0  0  0
  1  8  4  0
  1 12  4  0
  2  9  1  0
  2 11  4  0
  2 25  4  0
  3 12  4  0
  3 14  1  0
  3 23  4  0
  4 13  4  0
  4 21  4  0
  4 24  1  0
  5  8  4  0
  5 23  4  0
  6 18  2  0
  7 15  4  0
  7 16  1  0
  7 27  4  0
  8 18  1  0
 10 18  1  0
 10 20  1  0
 11 15  4  0
 11 26  1  0
 13 22  4  0
 16 19  1  0
 16 20  2  0
 17 19  4  0
 17 21  4  0
 19 22  4  0
 20 28  1  0
 25 27  4  0
M  END
$$$$

 Created by Python create_sdf_string function

 28 30  0  0  0  0  0  0  0  0999 V2000
   11.4592   11.2893   18.7941 C   0  0  0  0  0  0  0  0  0  0  0  0
    3.4202    7.9009   20.3866 C   0  0  0  0  0  0  0  0  0  0  0  0
   13.5280   10.3522   19.3586 C   0  0  0  0  0  0  0  0  0  0  0  0
    9.6923    5.6468   22.7891 C   0  0  0  0  0  0  0  0  0  0  0  0
   11.7756   10.2554   20.8841 N   0  0  0  0  0  0  0  0  0  0  0  0
    8.9876   11.9370   19.8757 O   0  0  0  0  0  0  0  0  0  0  0  0
    6.0167    8.4478   21.1089 C   0  0  0  0  0  0  0  0  0  0  0  0
   11.0002   10.8890   20.0262 C   0  0  0  0  0  0  0  0  0  0  0  0
    2.1721    7.7393   20.0315 O   0  0  0  0  0  0  0  0  0  0  0  0
    9.1107   10.3880   21.3769 N   0  0  0  0  0  0  0  0  0  0  0  0
    3.9102    9.2008   20.3124 C   0  0  0  0  0  0  0  0  0  0  0  0
   12.7292   10.9960   18.4597 C   0  0  0  0  0  0  0  0  0  0  0  0
    9.3798    6.6793   23.6625 C   0  0  0  0  0  0  0  0  0  0  0  0
   14.7425   10.0739   19.0802 O   0  0  0  0  0  0  0  0  0  0  0  0
    5.1894    9.4673   20.7118 C   0  0  0  0  0  0  0  0  0  0  0  0
    7.3773    8.8224   21.4870 C   0  0  0  0  0  0  0  0  0  0  0  0
    8.4391    6.6439   21.0235 C   0  0  0  0  0  0  0  0  0  0  0  0
    9.6494   11.1353   20.4167 C   0  0  0  0  0  0  0  0  0  0  0  0
    8.1431    7.6829   21.9046 C   0  0  0  0  0  0  0  0  0  0  0  0
    7.7796   10.1314   21.5115 N   0  0  0  0  0  0  0  0  0  0  0  0
    9.2768    5.6183   21.4437 C   0  0  0  0  0  0  0  0  0  0  0  0
    8.6315    7.7322   23.1768 C   0  0  0  0  0  0  0  0  0  0  0  0
   13.0537    9.9821   20.5781 C   0  0  0  0  0  0  0  0  0  0  0  0
   10.3850    4.6575   23.2386 O   0  0  0  0  0  0  0  0  0  0  0  0
    4.2069    6.8450   20.7994 C   0  0  0  0  0  0  0  0  0  0  0  0
    3.0726   10.1043   19.8522 O   0  0  0  0  0  0  0  0  0  0  0  0
    5.5057    7.1196   21.1155 C   0  0  0  0  0  0  0  0  0  0  0  0
    7.0367   11.0229   21.9948 O   0  0  0  0  0  0  0  0  0  0  0  0
  1  8  4  0
  1 12  4  0
  2  9  1  0
  2 11  4  0
  2 25  4  0
  3 12  4  0
  3 14  1  0
  3 23  4  0
  4 13  4  0
  4 21  4  0
  4 24  1  0
  5  8  4  0
  5 23  4  0
  6 18  2  0
  7 15  4  0
  7 16  1  0
  7 27  4  0
  8 18  1  0
 10 18  1  0
 10 20  1  0
 11 15  4  0
 11 26  1  0
 13 22  4  0
 16 19  1  0
 16 20  2  0
 17 19  4  0
 17 21  4  0
 19 22  4  0
 20 28  1  0
 25 27  4  0
M  END
$$$$

 Created by Python create_sdf_string function

 28 30  0  0  0  0  0  0  0  0999 V2000
   11.4592   11.2893   18.7941 C   0  0  0  0  0  0  0  0  0  0  0  0
    3.4202    7.9009   20.3866 C   0  0  0  0  0  0  0  0  0  0  0  0
   13.5280   10.3522   19.3586 C   0  0  0  0  0  0  0  0  0  0  0  0
    9.6923    5.6468   22.7891 C   0  0  0  0  0  0  0  0  0  0  0  0
   11.7756   10.2554   20.8841 N   0  0  0  0  0  0  0  0  0  0  0  0
    8.9876   11.9370   19.8757 O   0  0  0  0  0  0  0  0  0  0  0  0
    6.0167    8.4478   21.1089 C   0  0  0  0  0  0  0  0  0  0  0  0
   11.0002   10.8890   20.0262 C   0  0  0  0  0  0  0  0  0  0  0  0
    2.1721    7.7393   20.0315 O   0  0  0  0  0  0  0  0  0  0  0  0
    9.1107   10.3880   21.3769 N   0  0  0  0  0  0  0  0  0  0  0  0
    3.9102    9.2008   20.3124 C   0  0  0  0  0  0  0  0  0  0  0  0
   12.7292   10.9960   18.4597 C   0  0  0  0  0  0  0  0  0  0  0  0
    9.3798    6.6793   23.6625 C   0  0  0  0  0  0  0  0  0  0  0  0
   14.7425   10.0739   19.0802 O   0  0  0  0  0  0  0  0  0  0  0  0
    5.1894    9.4673   20.7118 C   0  0  0  0  0  0  0  0  0  0  0  0
    7.3773    8.8224   21.4870 C   0  0  0  0  0  0  0  0  0  0  0  0
    8.4391    6.6439   21.0235 C   0  0  0  0  0  0  0  0  0  0  0  0
    9.6494   11.1353   20.4167 C   0  0  0  0  0  0  0  0  0  0  0  0
    8.1431    7.6829   21.9046 C   0  0  0  0  0  0  0  0  0  0  0  0
    7.7796   10.1314   21.5115 N   0  0  0  0  0  0  0  0  0  0  0  0
    9.2768    5.6183   21.4437 C   0  0  0  0  0  0  0  0  0  0  0  0
    8.6315    7.7322   23.1768 C   0  0  0  0  0  0  0  0  0  0  0  0
   13.0537    9.9821   20.5781 C   0  0  0  0  0  0  0  0  0  0  0  0
   10.3850    4.6575   23.2386 O   0  0  0  0  0  0  0  0  0  0  0  0
    4.2069    6.8450   20.7994 C   0  0  0  0  0  0  0  0  0  0  0  0
    3.0726   10.1043   19.8522 O   0  0  0  0  0  0  0  0  0  0  0  0
    5.5057    7.1196   21.1155 C   0  0  0  0  0  0  0  0  0  0  0  0
    7.0367   11.0229   21.9948 O   0  0  0  0  0  0  0  0  0  0  0  0
  1  8  4  0
  1 12  4  0
  2  9  1  0
  2 11  4  0
  2 25  4  0
  3 12  4  0
  3 14  1  0
  3 23  4  0
  4 13  4  0
  4 21  4  0
  4 24  1  0
  5  8  4  0
  5 23  4  0
  6 18  2  0
  7 15  4  0
  7 16  1  0
  7 27  4  0
  8 18  1  0
 10 18  1  0
 10 20  1  0
 11 15  4  0
 11 26  1  0
 13 22  4  0
 16 19  1  0
 16 20  2  0
 17 19  4  0
 17 21  4  0
 19 22  4  0
 20 28  1  0
 25 27  4  0
M  END
$$$$

 Created by Python create_sdf_string function

 28 30  0  0  0  0  0  0  0  0999 V2000
   11.4592   11.2893   18.7941 C   0  0  0  0  0  0  0  0  0  0  0  0
    3.4202    7.9009   20.3866 C   0  0  0  0  0  0  0  0  0  0  0  0
   13.5280   10.3522   19.3586 C   0  0  0  0  0  0  0  0  0  0  0  0
    9.6923    5.6468   22.7891 C   0  0  0  0  0  0  0  0  0  0  0  0
   11.7756   10.2554   20.8841 N   0  0  0  0  0  0  0  0  0  0  0  0
    8.9876   11.9370   19.8757 O   0  0  0  0  0  0  0  0  0  0  0  0
    6.0167    8.4478   21.1089 C   0  0  0  0  0  0  0  0  0  0  0  0
   11.0002   10.8890   20.0262 C   0  0  0  0  0  0  0  0  0  0  0  0
    2.1721    7.7393   20.0315 O   0  0  0  0  0  0  0  0  0  0  0  0
    9.1107   10.3880   21.3769 N   0  0  0  0  0  0  0  0  0  0  0  0
    3.9102    9.2008   20.3124 C   0  0  0  0  0  0  0  0  0  0  0  0
   12.7292   10.9960   18.4597 C   0  0  0  0  0  0  0  0  0  0  0  0
    9.3798    6.6793   23.6625 C   0  0  0  0  0  0  0  0  0  0  0  0
   14.7425   10.0739   19.0802 O   0  0  0  0  0  0  0  0  0  0  0  0
    5.1894    9.4673   20.7118 C   0  0  0  0  0  0  0  0  0  0  0  0
    7.3773    8.8224   21.4870 C   0  0  0  0  0  0  0  0  0  0  0  0
    8.4391    6.6439   21.0235 C   0  0  0  0  0  0  0  0  0  0  0  0
    9.6494   11.1353   20.4167 C   0  0  0  0  0  0  0  0  0  0  0  0
    8.1431    7.6829   21.9046 C   0  0  0  0  0  0  0  0  0  0  0  0
    7.7796   10.1314   21.5115 N   0  0  0  0  0  0  0  0  0  0  0  0
    9.2768    5.6183   21.4437 C   0  0  0  0  0  0  0  0  0  0  0  0
    8.6315    7.7322   23.1768 C   0  0  0  0  0  0  0  0  0  0  0  0
   13.0537    9.9821   20.5781 C   0  0  0  0  0  0  0  0  0  0  0  0
   10.3850    4.6575   23.2386 O   0  0  0  0  0  0  0  0  0  0  0  0
    4.2069    6.8450   20.7994 C   0  0  0  0  0  0  0  0  0  0  0  0
    3.0726   10.1043   19.8522 O   0  0  0  0  0  0  0  0  0  0  0  0
    5.5057    7.1196   21.1155 C   0  0  0  0  0  0  0  0  0  0  0  0
    7.0367   11.0229   21.9948 O   0  0  0  0  0  0  0  0  0  0  0  0
  1  8  4  0
  1 12  4  0
  2  9  1  0
  2 11  4  0
  2 25  4  0
  3 12  4  0
  3 14  1  0
  3 23  4  0
  4 13  4  0
  4 21  4  0
  4 24  1  0
  5  8  4  0
  5 23  4  0
  6 18  2  0
  7 15  4  0
  7 16  1  0
  7 27  4  0
  8 18  1  0
 10 18  1  0
 10 20  1  0
 11 15  4  0
 11 26  1  0
 13 22  4  0
 16 19  1  0
 16 20  2  0
 17 19  4  0
 17 21  4  0
 19 22  4  0
 20 28  1  0
 25 27  4  0
M  END
$$$$

 Created by Python create_sdf_string function

 28 30  0  0  0  0  0  0  0  0999 V2000
   11.4592   11.2893   18.7941 C   0  0  0  0  0  0  0  0  0  0  0  0
    3.4202    7.9009   20.3866 C   0  0  0  0  0  0  0  0  0  0  0  0
   13.5280   10.3522   19.3586 C   0  0  0  0  0  0  0  0  0  0  0  0
    9.6923    5.6468   22.7891 C   0  0  0  0  0  0  0  0  0  0  0  0
   11.7756   10.2554   20.8841 N   0  0  0  0  0  0  0  0  0  0  0  0
    8.9876   11.9370   19.8757 O   0  0  0  0  0  0  0  0  0  0  0  0
    6.0167    8.4478   21.1089 C   0  0  0  0  0  0  0  0  0  0  0  0
   11.0002   10.8890   20.0262 C   0  0  0  0  0  0  0  0  0  0  0  0
    2.1721    7.7393   20.0315 O   0  0  0  0  0  0  0  0  0  0  0  0
    9.1107   10.3880   21.3769 N   0  0  0  0  0  0  0  0  0  0  0  0
    3.9102    9.2008   20.3124 C   0  0  0  0  0  0  0  0  0  0  0  0
   12.7292   10.9960   18.4597 C   0  0  0  0  0  0  0  0  0  0  0  0
    9.3798    6.6793   23.6625 C   0  0  0  0  0  0  0  0  0  0  0  0
   14.7425   10.0739   19.0802 O   0  0  0  0  0  0  0  0  0  0  0  0
    5.1894    9.4673   20.7118 C   0  0  0  0  0  0  0  0  0  0  0  0
    7.3773    8.8224   21.4870 C   0  0  0  0  0  0  0  0  0  0  0  0
    8.4391    6.6439   21.0235 C   0  0  0  0  0  0  0  0  0  0  0  0
    9.6494   11.1353   20.4167 C   0  0  0  0  0  0  0  0  0  0  0  0
    8.1431    7.6829   21.9046 C   0  0  0  0  0  0  0  0  0  0  0  0
    7.7796   10.1314   21.5115 N   0  0  0  0  0  0  0  0  0  0  0  0
    9.2768    5.6183   21.4437 C   0  0  0  0  0  0  0  0  0  0  0  0
    8.6315    7.7322   23.1768 C   0  0  0  0  0  0  0  0  0  0  0  0
   13.0537    9.9821   20.5781 C   0  0  0  0  0  0  0  0  0  0  0  0
   10.3850    4.6575   23.2386 O   0  0  0  0  0  0  0  0  0  0  0  0
    4.2069    6.8450   20.7994 C   0  0  0  0  0  0  0  0  0  0  0  0
    3.0726   10.1043   19.8522 O   0  0  0  0  0  0  0  0  0  0  0  0
    5.5057    7.1196   21.1155 C   0  0  0  0  0  0  0  0  0  0  0  0
    7.0367   11.0229   21.9948 O   0  0  0  0  0  0  0  0  0  0  0  0
  1  8  4  0
  1 12  4  0
  2  9  1  0
  2 11  4  0
  2 25  4  0
  3 12  4  0
  3 14  1  0
  3 23  4  0
  4 13  4  0
  4 21  4  0
  4 24  1  0
  5  8  4  0
  5 23  4  0
  6 18  2  0
  7 15  4  0
  7 16  1  0
  7 27  4  0
  8 18  1  0
 10 18  1  0
 10 20  1  0
 11 15  4  0
 11 26  1  0
 13 22  4  0
 16 19  1  0
 16 20  2  0
 17 19  4  0
 17 21  4  0
 19 22  4  0
 20 28  1  0
 25 27  4  0
M  END
$$$$

 Created by Python create_sdf_string function

 28 30  0  0  0  0  0  0  0  0999 V2000
   11.4592   11.2893   18.7941 C   0  0  0  0  0  0  0  0  0  0  0  0
    3.4202    7.9009   20.3866 C   0  0  0  0  0  0  0  0  0  0  0  0
   13.5280   10.3522   19.3586 C   0  0  0  0  0  0  0  0  0  0  0  0
    9.6923    5.6468   22.7891 C   0  0  0  0  0  0  0  0  0  0  0  0
   11.7756   10.2554   20.8841 N   0  0  0  0  0  0  0  0  0  0  0  0
    8.9876   11.9370   19.8757 O   0  0  0  0  0  0  0  0  0  0  0  0
    6.0167    8.4478   21.1089 C   0  0  0  0  0  0  0  0  0  0  0  0
   11.0002   10.8890   20.0262 C   0  0  0  0  0  0  0  0  0  0  0  0
    2.1721    7.7393   20.0315 O   0  0  0  0  0  0  0  0  0  0  0  0
    9.1107   10.3880   21.3769 N   0  0  0  0  0  0  0  0  0  0  0  0
    3.9102    9.2008   20.3124 C   0  0  0  0  0  0  0  0  0  0  0  0
   12.7292   10.9960   18.4597 C   0  0  0  0  0  0  0  0  0  0  0  0
    9.3798    6.6793   23.6625 C   0  0  0  0  0  0  0  0  0  0  0  0
   14.7425   10.0739   19.0802 O   0  0  0  0  0  0  0  0  0  0  0  0
    5.1894    9.4673   20.7118 C   0  0  0  0  0  0  0  0  0  0  0  0
    7.3773    8.8224   21.4870 C   0  0  0  0  0  0  0  0  0  0  0  0
    8.4391    6.6439   21.0235 C   0  0  0  0  0  0  0  0  0  0  0  0
    9.6494   11.1353   20.4167 C   0  0  0  0  0  0  0  0  0  0  0  0
    8.1431    7.6829   21.9046 C   0  0  0  0  0  0  0  0  0  0  0  0
    7.7796   10.1314   21.5115 N   0  0  0  0  0  0  0  0  0  0  0  0
    9.2768    5.6183   21.4437 C   0  0  0  0  0  0  0  0  0  0  0  0
    8.6315    7.7322   23.1768 C   0  0  0  0  0  0  0  0  0  0  0  0
   13.0537    9.9821   20.5781 C   0  0  0  0  0  0  0  0  0  0  0  0
   10.3850    4.6575   23.2386 O   0  0  0  0  0  0  0  0  0  0  0  0
    4.2069    6.8450   20.7994 C   0  0  0  0  0  0  0  0  0  0  0  0
    3.0726   10.1043   19.8522 O   0  0  0  0  0  0  0  0  0  0  0  0
    5.5057    7.1196   21.1155 C   0  0  0  0  0  0  0  0  0  0  0  0
    7.0367   11.0229   21.9948 O   0  0  0  0  0  0  0  0  0  0  0  0
  1  8  4  0
  1 12  4  0
  2  9  1  0
  2 11  4  0
  2 25  4  0
  3 12  4  0
  3 14  1  0
  3 23  4  0
  4 13  4  0
  4 21  4  0
  4 24  1  0
  5  8  4  0
  5 23  4  0
  6 18  2  0
  7 15  4  0
  7 16  1  0
  7 27  4  0
  8 18  1  0
 10 18  1  0
 10 20  1  0
 11 15  4  0
 11 26  1  0
 13 22  4  0
 16 19  1  0
 16 20  2  0
 17 19  4  0
 17 21  4  0
 19 22  4  0
 20 28  1  0
 25 27  4  0
M  END
$$$$

 Created by Python create_sdf_string function

 28 30  0  0  0  0  0  0  0  0999 V2000
   11.4592   11.2893   18.7941 C   0  0  0  0  0  0  0  0  0  0  0  0
    3.4202    7.9009   20.3866 C   0  0  0  0  0  0  0  0  0  0  0  0
   13.5280   10.3522   19.3586 C   0  0  0  0  0  0  0  0  0  0  0  0
    9.6923    5.6468   22.7891 C   0  0  0  0  0  0  0  0  0  0  0  0
   11.7756   10.2554   20.8841 N   0  0  0  0  0  0  0  0  0  0  0  0
    8.9876   11.9370   19.8757 O   0  0  0  0  0  0  0  0  0  0  0  0
    6.0167    8.4478   21.1089 C   0  0  0  0  0  0  0  0  0  0  0  0
   11.0002   10.8890   20.0262 C   0  0  0  0  0  0  0  0  0  0  0  0
    2.1721    7.7393   20.0315 O   0  0  0  0  0  0  0  0  0  0  0  0
    9.1107   10.3880   21.3769 N   0  0  0  0  0  0  0  0  0  0  0  0
    3.9102    9.2008   20.3124 C   0  0  0  0  0  0  0  0  0  0  0  0
   12.7292   10.9960   18.4597 C   0  0  0  0  0  0  0  0  0  0  0  0
    9.3798    6.6793   23.6625 C   0  0  0  0  0  0  0  0  0  0  0  0
   14.7425   10.0739   19.0802 O   0  0  0  0  0  0  0  0  0  0  0  0
    5.1894    9.4673   20.7118 C   0  0  0  0  0  0  0  0  0  0  0  0
    7.3773    8.8224   21.4870 C   0  0  0  0  0  0  0  0  0  0  0  0
    8.4391    6.6439   21.0235 C   0  0  0  0  0  0  0  0  0  0  0  0
    9.6494   11.1353   20.4167 C   0  0  0  0  0  0  0  0  0  0  0  0
    8.1431    7.6829   21.9046 C   0  0  0  0  0  0  0  0  0  0  0  0
    7.7796   10.1314   21.5115 N   0  0  0  0  0  0  0  0  0  0  0  0
    9.2768    5.6183   21.4437 C   0  0  0  0  0  0  0  0  0  0  0  0
    8.6315    7.7322   23.1768 C   0  0  0  0  0  0  0  0  0  0  0  0
   13.0537    9.9821   20.5781 C   0  0  0  0  0  0  0  0  0  0  0  0
   10.3850    4.6575   23.2386 O   0  0  0  0  0  0  0  0  0  0  0  0
    4.2069    6.8450   20.7994 C   0  0  0  0  0  0  0  0  0  0  0  0
    3.0726   10.1043   19.8522 O   0  0  0  0  0  0  0  0  0  0  0  0
    5.5057    7.1196   21.1155 C   0  0  0  0  0  0  0  0  0  0  0  0
    7.0367   11.0229   21.9948 O   0  0  0  0  0  0  0  0  0  0  0  0
  1  8  4  0
  1 12  4  0
  2  9  1  0
  2 11  4  0
  2 25  4  0
  3 12  4  0
  3 14  1  0
  3 23  4  0
  4 13  4  0
  4 21  4  0
  4 24  1  0
  5  8  4  0
  5 23  4  0
  6 18  2  0
  7 15  4  0
  7 16  1  0
  7 27  4  0
  8 18  1  0
 10 18  1  0
 10 20  1  0
 11 15  4  0
 11 26  1  0
 13 22  4  0
 16 19  1  0
 16 20  2  0
 17 19  4  0
 17 21  4  0
 19 22  4  0
 20 28  1  0
 25 27  4  0
M  END
$$$$

 Created by Python create_sdf_string function

 28 30  0  0  0  0  0  0  0  0999 V2000
   11.4592   11.2893   18.7941 C   0  0  0  0  0  0  0  0  0  0  0  0
    3.4202    7.9009   20.3866 C   0  0  0  0  0  0  0  0  0  0  0  0
   13.5280   10.3522   19.3586 C   0  0  0  0  0  0  0  0  0  0  0  0
    9.6923    5.6468   22.7891 C   0  0  0  0  0  0  0  0  0  0  0  0
   11.7756   10.2554   20.8841 N   0  0  0  0  0  0  0  0  0  0  0  0
    8.9876   11.9370   19.8757 O   0  0  0  0  0  0  0  0  0  0  0  0
    6.0167    8.4478   21.1089 C   0  0  0  0  0  0  0  0  0  0  0  0
   11.0002   10.8890   20.0262 C   0  0  0  0  0  0  0  0  0  0  0  0
    2.1721    7.7393   20.0315 O   0  0  0  0  0  0  0  0  0  0  0  0
    9.1107   10.3880   21.3769 N   0  0  0  0  0  0  0  0  0  0  0  0
    3.9102    9.2008   20.3124 C   0  0  0  0  0  0  0  0  0  0  0  0
   12.7292   10.9960   18.4597 C   0  0  0  0  0  0  0  0  0  0  0  0
    9.3798    6.6793   23.6625 C   0  0  0  0  0  0  0  0  0  0  0  0
   14.7425   10.0739   19.0802 O   0  0  0  0  0  0  0  0  0  0  0  0
    5.1894    9.4673   20.7118 C   0  0  0  0  0  0  0  0  0  0  0  0
    7.3773    8.8224   21.4870 C   0  0  0  0  0  0  0  0  0  0  0  0
    8.4391    6.6439   21.0235 C   0  0  0  0  0  0  0  0  0  0  0  0
    9.6494   11.1353   20.4167 C   0  0  0  0  0  0  0  0  0  0  0  0
    8.1431    7.6829   21.9046 C   0  0  0  0  0  0  0  0  0  0  0  0
    7.7796   10.1314   21.5115 N   0  0  0  0  0  0  0  0  0  0  0  0
    9.2768    5.6183   21.4437 C   0  0  0  0  0  0  0  0  0  0  0  0
    8.6315    7.7322   23.1768 C   0  0  0  0  0  0  0  0  0  0  0  0
   13.0537    9.9821   20.5781 C   0  0  0  0  0  0  0  0  0  0  0  0
   10.3850    4.6575   23.2386 O   0  0  0  0  0  0  0  0  0  0  0  0
    4.2069    6.8450   20.7994 C   0  0  0  0  0  0  0  0  0  0  0  0
    3.0726   10.1043   19.8522 O   0  0  0  0  0  0  0  0  0  0  0  0
    5.5057    7.1196   21.1155 C   0  0  0  0  0  0  0  0  0  0  0  0
    7.0367   11.0229   21.9948 O   0  0  0  0  0  0  0  0  0  0  0  0
  1  8  4  0
  1 12  4  0
  2  9  1  0
  2 11  4  0
  2 25  4  0
  3 12  4  0
  3 14  1  0
  3 23  4  0
  4 13  4  0
  4 21  4  0
  4 24  1  0
  5  8  4  0
  5 23  4  0
  6 18  2  0
  7 15  4  0
  7 16  1  0
  7 27  4  0
  8 18  1  0
 10 18  1  0
 10 20  1  0
 11 15  4  0
 11 26  1  0
 13 22  4  0
 16 19  1  0
 16 20  2  0
 17 19  4  0
 17 21  4  0
 19 22  4  0
 20 28  1  0
 25 27  4  0
M  END
$$$$

 Created by Python create_sdf_string function

 28 30  0  0  0  0  0  0  0  0999 V2000
   11.4592   11.2893   18.7941 C   0  0  0  0  0  0  0  0  0  0  0  0
    3.4202    7.9009   20.3866 C   0  0  0  0  0  0  0  0  0  0  0  0
   13.5280   10.3522   19.3586 C   0  0  0  0  0  0  0  0  0  0  0  0
    9.6923    5.6468   22.7891 C   0  0  0  0  0  0  0  0  0  0  0  0
   11.7756   10.2554   20.8841 N   0  0  0  0  0  0  0  0  0  0  0  0
    8.9876   11.9370   19.8757 O   0  0  0  0  0  0  0  0  0  0  0  0
    6.0167    8.4478   21.1089 C   0  0  0  0  0  0  0  0  0  0  0  0
   11.0002   10.8890   20.0262 C   0  0  0  0  0  0  0  0  0  0  0  0
    2.1721    7.7393   20.0315 O   0  0  0  0  0  0  0  0  0  0  0  0
    9.1107   10.3880   21.3769 N   0  0  0  0  0  0  0  0  0  0  0  0
    3.9102    9.2008   20.3124 C   0  0  0  0  0  0  0  0  0  0  0  0
   12.7292   10.9960   18.4597 C   0  0  0  0  0  0  0  0  0  0  0  0
    9.3798    6.6793   23.6625 C   0  0  0  0  0  0  0  0  0  0  0  0
   14.7425   10.0739   19.0802 O   0  0  0  0  0  0  0  0  0  0  0  0
    5.1894    9.4673   20.7118 C   0  0  0  0  0  0  0  0  0  0  0  0
    7.3773    8.8224   21.4870 C   0  0  0  0  0  0  0  0  0  0  0  0
    8.4391    6.6439   21.0235 C   0  0  0  0  0  0  0  0  0  0  0  0
    9.6494   11.1353   20.4167 C   0  0  0  0  0  0  0  0  0  0  0  0
    8.1431    7.6829   21.9046 C   0  0  0  0  0  0  0  0  0  0  0  0
    7.7796   10.1314   21.5115 N   0  0  0  0  0  0  0  0  0  0  0  0
    9.2768    5.6183   21.4437 C   0  0  0  0  0  0  0  0  0  0  0  0
    8.6315    7.7322   23.1768 C   0  0  0  0  0  0  0  0  0  0  0  0
   13.0537    9.9821   20.5781 C   0  0  0  0  0  0  0  0  0  0  0  0
   10.3850    4.6575   23.2386 O   0  0  0  0  0  0  0  0  0  0  0  0
    4.2069    6.8450   20.7994 C   0  0  0  0  0  0  0  0  0  0  0  0
    3.0726   10.1043   19.8522 O   0  0  0  0  0  0  0  0  0  0  0  0
    5.5057    7.1196   21.1155 C   0  0  0  0  0  0  0  0  0  0  0  0
    7.0367   11.0229   21.9948 O   0  0  0  0  0  0  0  0  0  0  0  0
  1  8  4  0
  1 12  4  0
  2  9  1  0
  2 11  4  0
  2 25  4  0
  3 12  4  0
  3 14  1  0
  3 23  4  0
  4 13  4  0
  4 21  4  0
  4 24  1  0
  5  8  4  0
  5 23  4  0
  6 18  2  0
  7 15  4  0
  7 16  1  0
  7 27  4  0
  8 18  1  0
 10 18  1  0
 10 20  1  0
 11 15  4  0
 11 26  1  0
 13 22  4  0
 16 19  1  0
 16 20  2  0
 17 19  4  0
 17 21  4  0
 19 22  4  0
 20 28  1  0
 25 27  4  0
M  END
$$$$

 Created by Python create_sdf_string function

 28 30  0  0  0  0  0  0  0  0999 V2000
   11.4592   11.2893   18.7941 C   0  0  0  0  0  0  0  0  0  0  0  0
    3.4202    7.9009   20.3866 C   0  0  0  0  0  0  0  0  0  0  0  0
   13.5280   10.3522   19.3586 C   0  0  0  0  0  0  0  0  0  0  0  0
    9.6923    5.6468   22.7891 C   0  0  0  0  0  0  0  0  0  0  0  0
   11.7756   10.2554   20.8841 N   0  0  0  0  0  0  0  0  0  0  0  0
    8.9876   11.9370   19.8757 O   0  0  0  0  0  0  0  0  0  0  0  0
    6.0167    8.4478   21.1089 C   0  0  0  0  0  0  0  0  0  0  0  0
   11.0002   10.8890   20.0262 C   0  0  0  0  0  0  0  0  0  0  0  0
    2.1721    7.7393   20.0315 O   0  0  0  0  0  0  0  0  0  0  0  0
    9.1107   10.3880   21.3769 N   0  0  0  0  0  0  0  0  0  0  0  0
    3.9102    9.2008   20.3124 C   0  0  0  0  0  0  0  0  0  0  0  0
   12.7292   10.9960   18.4597 C   0  0  0  0  0  0  0  0  0  0  0  0
    9.3798    6.6793   23.6625 C   0  0  0  0  0  0  0  0  0  0  0  0
   14.7425   10.0739   19.0802 O   0  0  0  0  0  0  0  0  0  0  0  0
    5.1894    9.4673   20.7118 C   0  0  0  0  0  0  0  0  0  0  0  0
    7.3773    8.8224   21.4870 C   0  0  0  0  0  0  0  0  0  0  0  0
    8.4391    6.6439   21.0235 C   0  0  0  0  0  0  0  0  0  0  0  0
    9.6494   11.1353   20.4167 C   0  0  0  0  0  0  0  0  0  0  0  0
    8.1431    7.6829   21.9046 C   0  0  0  0  0  0  0  0  0  0  0  0
    7.7796   10.1314   21.5115 N   0  0  0  0  0  0  0  0  0  0  0  0
    9.2768    5.6183   21.4437 C   0  0  0  0  0  0  0  0  0  0  0  0
    8.6315    7.7322   23.1768 C   0  0  0  0  0  0  0  0  0  0  0  0
   13.0537    9.9821   20.5781 C   0  0  0  0  0  0  0  0  0  0  0  0
   10.3850    4.6575   23.2386 O   0  0  0  0  0  0  0  0  0  0  0  0
    4.2069    6.8450   20.7994 C   0  0  0  0  0  0  0  0  0  0  0  0
    3.0726   10.1043   19.8522 O   0  0  0  0  0  0  0  0  0  0  0  0
    5.5057    7.1196   21.1155 C   0  0  0  0  0  0  0  0  0  0  0  0
    7.0367   11.0229   21.9948 O   0  0  0  0  0  0  0  0  0  0  0  0
  1  8  4  0
  1 12  4  0
  2  9  1  0
  2 11  4  0
  2 25  4  0
  3 12  4  0
  3 14  1  0
  3 23  4  0
  4 13  4  0
  4 21  4  0
  4 24  1  0
  5  8  4  0
  5 23  4  0
  6 18  2  0
  7 15  4  0
  7 16  1  0
  7 27  4  0
  8 18  1  0
 10 18  1  0
 10 20  1  0
 11 15  4  0
 11 26  1  0
 13 22  4  0
 16 19  1  0
 16 20  2  0
 17 19  4  0
 17 21  4  0
 19 22  4  0
 20 28  1  0
 25 27  4  0
M  END
$$$$

 Created by Python create_sdf_string function

 28 30  0  0  0  0  0  0  0  0999 V2000
   11.4592   11.2893   18.7941 C   0  0  0  0  0  0  0  0  0  0  0  0
    3.4202    7.9009   20.3866 C   0  0  0  0  0  0  0  0  0  0  0  0
   13.5280   10.3522   19.3586 C   0  0  0  0  0  0  0  0  0  0  0  0
    9.6923    5.6468   22.7891 C   0  0  0  0  0  0  0  0  0  0  0  0
   11.7756   10.2554   20.8841 N   0  0  0  0  0  0  0  0  0  0  0  0
    8.9876   11.9370   19.8757 O   0  0  0  0  0  0  0  0  0  0  0  0
    6.0167    8.4478   21.1089 C   0  0  0  0  0  0  0  0  0  0  0  0
   11.0002   10.8890   20.0262 C   0  0  0  0  0  0  0  0  0  0  0  0
    2.1721    7.7393   20.0315 O   0  0  0  0  0  0  0  0  0  0  0  0
    9.1107   10.3880   21.3769 N   0  0  0  0  0  0  0  0  0  0  0  0
    3.9102    9.2008   20.3124 C   0  0  0  0  0  0  0  0  0  0  0  0
   12.7292   10.9960   18.4597 C   0  0  0  0  0  0  0  0  0  0  0  0
    9.3798    6.6793   23.6625 C   0  0  0  0  0  0  0  0  0  0  0  0
   14.7425   10.0739   19.0802 O   0  0  0  0  0  0  0  0  0  0  0  0
    5.1894    9.4673   20.7118 C   0  0  0  0  0  0  0  0  0  0  0  0
    7.3773    8.8224   21.4870 C   0  0  0  0  0  0  0  0  0  0  0  0
    8.4391    6.6439   21.0235 C   0  0  0  0  0  0  0  0  0  0  0  0
    9.6494   11.1353   20.4167 C   0  0  0  0  0  0  0  0  0  0  0  0
    8.1431    7.6829   21.9046 C   0  0  0  0  0  0  0  0  0  0  0  0
    7.7796   10.1314   21.5115 N   0  0  0  0  0  0  0  0  0  0  0  0
    9.2768    5.6183   21.4437 C   0  0  0  0  0  0  0  0  0  0  0  0
    8.6315    7.7322   23.1768 C   0  0  0  0  0  0  0  0  0  0  0  0
   13.0537    9.9821   20.5781 C   0  0  0  0  0  0  0  0  0  0  0  0
   10.3850    4.6575   23.2386 O   0  0  0  0  0  0  0  0  0  0  0  0
    4.2069    6.8450   20.7994 C   0  0  0  0  0  0  0  0  0  0  0  0
    3.0726   10.1043   19.8522 O   0  0  0  0  0  0  0  0  0  0  0  0
    5.5057    7.1196   21.1155 C   0  0  0  0  0  0  0  0  0  0  0  0
    7.0367   11.0229   21.9948 O   0  0  0  0  0  0  0  0  0  0  0  0
  1  8  4  0
  1 12  4  0
  2  9  1  0
  2 11  4  0
  2 25  4  0
  3 12  4  0
  3 14  1  0
  3 23  4  0
  4 13  4  0
  4 21  4  0
  4 24  1  0
  5  8  4  0
  5 23  4  0
  6 18  2  0
  7 15  4  0
  7 16  1  0
  7 27  4  0
  8 18  1  0
 10 18  1  0
 10 20  1  0
 11 15  4  0
 11 26  1  0
 13 22  4  0
 16 19  1  0
 16 20  2  0
 17 19  4  0
 17 21  4  0
 19 22  4  0
 20 28  1  0
 25 27  4  0
M  END
$$$$

 Created by Python create_sdf_string function

 28 30  0  0  0  0  0  0  0  0999 V2000
   11.4592   11.2893   18.7941 C   0  0  0  0  0  0  0  0  0  0  0  0
    3.4202    7.9009   20.3866 C   0  0  0  0  0  0  0  0  0  0  0  0
   13.5280   10.3522   19.3586 C   0  0  0  0  0  0  0  0  0  0  0  0
    9.6923    5.6468   22.7891 C   0  0  0  0  0  0  0  0  0  0  0  0
   11.7756   10.2554   20.8841 N   0  0  0  0  0  0  0  0  0  0  0  0
    8.9876   11.9370   19.8757 O   0  0  0  0  0  0  0  0  0  0  0  0
    6.0167    8.4478   21.1089 C   0  0  0  0  0  0  0  0  0  0  0  0
   11.0002   10.8890   20.0262 C   0  0  0  0  0  0  0  0  0  0  0  0
    2.1721    7.7393   20.0315 O   0  0  0  0  0  0  0  0  0  0  0  0
    9.1107   10.3880   21.3769 N   0  0  0  0  0  0  0  0  0  0  0  0
    3.9102    9.2008   20.3124 C   0  0  0  0  0  0  0  0  0  0  0  0
   12.7292   10.9960   18.4597 C   0  0  0  0  0  0  0  0  0  0  0  0
    9.3798    6.6793   23.6625 C   0  0  0  0  0  0  0  0  0  0  0  0
   14.7425   10.0739   19.0802 O   0  0  0  0  0  0  0  0  0  0  0  0
    5.1894    9.4673   20.7118 C   0  0  0  0  0  0  0  0  0  0  0  0
    7.3773    8.8224   21.4870 C   0  0  0  0  0  0  0  0  0  0  0  0
    8.4391    6.6439   21.0235 C   0  0  0  0  0  0  0  0  0  0  0  0
    9.6494   11.1353   20.4167 C   0  0  0  0  0  0  0  0  0  0  0  0
    8.1431    7.6829   21.9046 C   0  0  0  0  0  0  0  0  0  0  0  0
    7.7796   10.1314   21.5115 N   0  0  0  0  0  0  0  0  0  0  0  0
    9.2768    5.6183   21.4437 C   0  0  0  0  0  0  0  0  0  0  0  0
    8.6315    7.7322   23.1768 C   0  0  0  0  0  0  0  0  0  0  0  0
   13.0537    9.9821   20.5781 C   0  0  0  0  0  0  0  0  0  0  0  0
   10.3850    4.6575   23.2386 O   0  0  0  0  0  0  0  0  0  0  0  0
    4.2069    6.8450   20.7994 C   0  0  0  0  0  0  0  0  0  0  0  0
    3.0726   10.1043   19.8522 O   0  0  0  0  0  0  0  0  0  0  0  0
    5.5057    7.1196   21.1155 C   0  0  0  0  0  0  0  0  0  0  0  0
    7.0367   11.0229   21.9948 O   0  0  0  0  0  0  0  0  0  0  0  0
  1  8  4  0
  1 12  4  0
  2  9  1  0
  2 11  4  0
  2 25  4  0
  3 12  4  0
  3 14  1  0
  3 23  4  0
  4 13  4  0
  4 21  4  0
  4 24  1  0
  5  8  4  0
  5 23  4  0
  6 18  2  0
  7 15  4  0
  7 16  1  0
  7 27  4  0
  8 18  1  0
 10 18  1  0
 10 20  1  0
 11 15  4  0
 11 26  1  0
 13 22  4  0
 16 19  1  0
 16 20  2  0
 17 19  4  0
 17 21  4  0
 19 22  4  0
 20 28  1  0
 25 27  4  0
M  END
$$$$

 Created by Python create_sdf_string function

 28 30  0  0  0  0  0  0  0  0999 V2000
   11.4592   11.2893   18.7941 C   0  0  0  0  0  0  0  0  0  0  0  0
    3.4202    7.9009   20.3866 C   0  0  0  0  0  0  0  0  0  0  0  0
   13.5280   10.3522   19.3586 C   0  0  0  0  0  0  0  0  0  0  0  0
    9.6923    5.6468   22.7891 C   0  0  0  0  0  0  0  0  0  0  0  0
   11.7756   10.2554   20.8841 N   0  0  0  0  0  0  0  0  0  0  0  0
    8.9876   11.9370   19.8757 O   0  0  0  0  0  0  0  0  0  0  0  0
    6.0167    8.4478   21.1089 C   0  0  0  0  0  0  0  0  0  0  0  0
   11.0002   10.8890   20.0262 C   0  0  0  0  0  0  0  0  0  0  0  0
    2.1721    7.7393   20.0315 O   0  0  0  0  0  0  0  0  0  0  0  0
    9.1107   10.3880   21.3769 N   0  0  0  0  0  0  0  0  0  0  0  0
    3.9102    9.2008   20.3124 C   0  0  0  0  0  0  0  0  0  0  0  0
   12.7292   10.9960   18.4597 C   0  0  0  0  0  0  0  0  0  0  0  0
    9.3798    6.6793   23.6625 C   0  0  0  0  0  0  0  0  0  0  0  0
   14.7425   10.0739   19.0802 O   0  0  0  0  0  0  0  0  0  0  0  0
    5.1894    9.4673   20.7118 C   0  0  0  0  0  0  0  0  0  0  0  0
    7.3773    8.8224   21.4870 C   0  0  0  0  0  0  0  0  0  0  0  0
    8.4391    6.6439   21.0235 C   0  0  0  0  0  0  0  0  0  0  0  0
    9.6494   11.1353   20.4167 C   0  0  0  0  0  0  0  0  0  0  0  0
    8.1431    7.6829   21.9046 C   0  0  0  0  0  0  0  0  0  0  0  0
    7.7796   10.1314   21.5115 N   0  0  0  0  0  0  0  0  0  0  0  0
    9.2768    5.6183   21.4437 C   0  0  0  0  0  0  0  0  0  0  0  0
    8.6315    7.7322   23.1768 C   0  0  0  0  0  0  0  0  0  0  0  0
   13.0537    9.9821   20.5781 C   0  0  0  0  0  0  0  0  0  0  0  0
   10.3850    4.6575   23.2386 O   0  0  0  0  0  0  0  0  0  0  0  0
    4.2069    6.8450   20.7994 C   0  0  0  0  0  0  0  0  0  0  0  0
    3.0726   10.1043   19.8522 O   0  0  0  0  0  0  0  0  0  0  0  0
    5.5057    7.1196   21.1155 C   0  0  0  0  0  0  0  0  0  0  0  0
    7.0367   11.0229   21.9948 O   0  0  0  0  0  0  0  0  0  0  0  0
  1  8  4  0
  1 12  4  0
  2  9  1  0
  2 11  4  0
  2 25  4  0
  3 12  4  0
  3 14  1  0
  3 23  4  0
  4 13  4  0
  4 21  4  0
  4 24  1  0
  5  8  4  0
  5 23  4  0
  6 18  2  0
  7 15  4  0
  7 16  1  0
  7 27  4  0
  8 18  1  0
 10 18  1  0
 10 20  1  0
 11 15  4  0
 11 26  1  0
 13 22  4  0
 16 19  1  0
 16 20  2  0
 17 19  4  0
 17 21  4  0
 19 22  4  0
 20 28  1  0
 25 27  4  0
M  END
$$$$

 Created by Python create_sdf_string function

 28 30  0  0  0  0  0  0  0  0999 V2000
   11.4592   11.2893   18.7941 C   0  0  0  0  0  0  0  0  0  0  0  0
    3.4202    7.9009   20.3866 C   0  0  0  0  0  0  0  0  0  0  0  0
   13.5280   10.3522   19.3586 C   0  0  0  0  0  0  0  0  0  0  0  0
    9.6923    5.6468   22.7891 C   0  0  0  0  0  0  0  0  0  0  0  0
   11.7756   10.2554   20.8841 N   0  0  0  0  0  0  0  0  0  0  0  0
    8.9876   11.9370   19.8757 O   0  0  0  0  0  0  0  0  0  0  0  0
    6.0167    8.4478   21.1089 C   0  0  0  0  0  0  0  0  0  0  0  0
   11.0002   10.8890   20.0262 C   0  0  0  0  0  0  0  0  0  0  0  0
    2.1721    7.7393   20.0315 O   0  0  0  0  0  0  0  0  0  0  0  0
    9.1107   10.3880   21.3769 N   0  0  0  0  0  0  0  0  0  0  0  0
    3.9102    9.2008   20.3124 C   0  0  0  0  0  0  0  0  0  0  0  0
   12.7292   10.9960   18.4597 C   0  0  0  0  0  0  0  0  0  0  0  0
    9.3798    6.6793   23.6625 C   0  0  0  0  0  0  0  0  0  0  0  0
   14.7425   10.0739   19.0802 O   0  0  0  0  0  0  0  0  0  0  0  0
    5.1894    9.4673   20.7118 C   0  0  0  0  0  0  0  0  0  0  0  0
    7.3773    8.8224   21.4870 C   0  0  0  0  0  0  0  0  0  0  0  0
    8.4391    6.6439   21.0235 C   0  0  0  0  0  0  0  0  0  0  0  0
    9.6494   11.1353   20.4167 C   0  0  0  0  0  0  0  0  0  0  0  0
    8.1431    7.6829   21.9046 C   0  0  0  0  0  0  0  0  0  0  0  0
    7.7796   10.1314   21.5115 N   0  0  0  0  0  0  0  0  0  0  0  0
    9.2768    5.6183   21.4437 C   0  0  0  0  0  0  0  0  0  0  0  0
    8.6315    7.7322   23.1768 C   0  0  0  0  0  0  0  0  0  0  0  0
   13.0537    9.9821   20.5781 C   0  0  0  0  0  0  0  0  0  0  0  0
   10.3850    4.6575   23.2386 O   0  0  0  0  0  0  0  0  0  0  0  0
    4.2069    6.8450   20.7994 C   0  0  0  0  0  0  0  0  0  0  0  0
    3.0726   10.1043   19.8522 O   0  0  0  0  0  0  0  0  0  0  0  0
    5.5057    7.1196   21.1155 C   0  0  0  0  0  0  0  0  0  0  0  0
    7.0367   11.0229   21.9948 O   0  0  0  0  0  0  0  0  0  0  0  0
  1  8  4  0
  1 12  4  0
  2  9  1  0
  2 11  4  0
  2 25  4  0
  3 12  4  0
  3 14  1  0
  3 23  4  0
  4 13  4  0
  4 21  4  0
  4 24  1  0
  5  8  4  0
  5 23  4  0
  6 18  2  0
  7 15  4  0
  7 16  1  0
  7 27  4  0
  8 18  1  0
 10 18  1  0
 10 20  1  0
 11 15  4  0
 11 26  1  0
 13 22  4  0
 16 19  1  0
 16 20  2  0
 17 19  4  0
 17 21  4  0
 19 22  4  0
 20 28  1  0
 25 27  4  0
M  END
$$$$

 Created by Python create_sdf_string function

 28 30  0  0  0  0  0  0  0  0999 V2000
   11.4592   11.2893   18.7941 C   0  0  0  0  0  0  0  0  0  0  0  0
    3.4202    7.9009   20.3866 C   0  0  0  0  0  0  0  0  0  0  0  0
   13.5280   10.3522   19.3586 C   0  0  0  0  0  0  0  0  0  0  0  0
    9.6923    5.6468   22.7891 C   0  0  0  0  0  0  0  0  0  0  0  0
   11.7756   10.2554   20.8841 N   0  0  0  0  0  0  0  0  0  0  0  0
    8.9876   11.9370   19.8757 O   0  0  0  0  0  0  0  0  0  0  0  0
    6.0167    8.4478   21.1089 C   0  0  0  0  0  0  0  0  0  0  0  0
   11.0002   10.8890   20.0262 C   0  0  0  0  0  0  0  0  0  0  0  0
    2.1721    7.7393   20.0315 O   0  0  0  0  0  0  0  0  0  0  0  0
    9.1107   10.3880   21.3769 N   0  0  0  0  0  0  0  0  0  0  0  0
    3.9102    9.2008   20.3124 C   0  0  0  0  0  0  0  0  0  0  0  0
   12.7292   10.9960   18.4597 C   0  0  0  0  0  0  0  0  0  0  0  0
    9.3798    6.6793   23.6625 C   0  0  0  0  0  0  0  0  0  0  0  0
   14.7425   10.0739   19.0802 O   0  0  0  0  0  0  0  0  0  0  0  0
    5.1894    9.4673   20.7118 C   0  0  0  0  0  0  0  0  0  0  0  0
    7.3773    8.8224   21.4870 C   0  0  0  0  0  0  0  0  0  0  0  0
    8.4391    6.6439   21.0235 C   0  0  0  0  0  0  0  0  0  0  0  0
    9.6494   11.1353   20.4167 C   0  0  0  0  0  0  0  0  0  0  0  0
    8.1431    7.6829   21.9046 C   0  0  0  0  0  0  0  0  0  0  0  0
    7.7796   10.1314   21.5115 N   0  0  0  0  0  0  0  0  0  0  0  0
    9.2768    5.6183   21.4437 C   0  0  0  0  0  0  0  0  0  0  0  0
    8.6315    7.7322   23.1768 C   0  0  0  0  0  0  0  0  0  0  0  0
   13.0537    9.9821   20.5781 C   0  0  0  0  0  0  0  0  0  0  0  0
   10.3850    4.6575   23.2386 O   0  0  0  0  0  0  0  0  0  0  0  0
    4.2069    6.8450   20.7994 C   0  0  0  0  0  0  0  0  0  0  0  0
    3.0726   10.1043   19.8522 O   0  0  0  0  0  0  0  0  0  0  0  0
    5.5057    7.1196   21.1155 C   0  0  0  0  0  0  0  0  0  0  0  0
    7.0367   11.0229   21.9948 O   0  0  0  0  0  0  0  0  0  0  0  0
  1  8  4  0
  1 12  4  0
  2  9  1  0
  2 11  4  0
  2 25  4  0
  3 12  4  0
  3 14  1  0
  3 23  4  0
  4 13  4  0
  4 21  4  0
  4 24  1  0
  5  8  4  0
  5 23  4  0
  6 18  2  0
  7 15  4  0
  7 16  1  0
  7 27  4  0
  8 18  1  0
 10 18  1  0
 10 20  1  0
 11 15  4  0
 11 26  1  0
 13 22  4  0
 16 19  1  0
 16 20  2  0
 17 19  4  0
 17 21  4  0
 19 22  4  0
 20 28  1  0
 25 27  4  0
M  END
$$$$

 Created by Python create_sdf_string function

 28 30  0  0  0  0  0  0  0  0999 V2000
   11.4592   11.2893   18.7941 C   0  0  0  0  0  0  0  0  0  0  0  0
    3.4202    7.9009   20.3866 C   0  0  0  0  0  0  0  0  0  0  0  0
   13.5280   10.3522   19.3586 C   0  0  0  0  0  0  0  0  0  0  0  0
    9.6923    5.6468   22.7891 C   0  0  0  0  0  0  0  0  0  0  0  0
   11.7756   10.2554   20.8841 N   0  0  0  0  0  0  0  0  0  0  0  0
    8.9876   11.9370   19.8757 O   0  0  0  0  0  0  0  0  0  0  0  0
    6.0167    8.4478   21.1089 C   0  0  0  0  0  0  0  0  0  0  0  0
   11.0002   10.8890   20.0262 C   0  0  0  0  0  0  0  0  0  0  0  0
    2.1721    7.7393   20.0315 O   0  0  0  0  0  0  0  0  0  0  0  0
    9.1107   10.3880   21.3769 N   0  0  0  0  0  0  0  0  0  0  0  0
    3.9102    9.2008   20.3124 C   0  0  0  0  0  0  0  0  0  0  0  0
   12.7292   10.9960   18.4597 C   0  0  0  0  0  0  0  0  0  0  0  0
    9.3798    6.6793   23.6625 C   0  0  0  0  0  0  0  0  0  0  0  0
   14.7425   10.0739   19.0802 O   0  0  0  0  0  0  0  0  0  0  0  0
    5.1894    9.4673   20.7118 C   0  0  0  0  0  0  0  0  0  0  0  0
    7.3773    8.8224   21.4870 C   0  0  0  0  0  0  0  0  0  0  0  0
    8.4391    6.6439   21.0235 C   0  0  0  0  0  0  0  0  0  0  0  0
    9.6494   11.1353   20.4167 C   0  0  0  0  0  0  0  0  0  0  0  0
    8.1431    7.6829   21.9046 C   0  0  0  0  0  0  0  0  0  0  0  0
    7.7796   10.1314   21.5115 N   0  0  0  0  0  0  0  0  0  0  0  0
    9.2768    5.6183   21.4437 C   0  0  0  0  0  0  0  0  0  0  0  0
    8.6315    7.7322   23.1768 C   0  0  0  0  0  0  0  0  0  0  0  0
   13.0537    9.9821   20.5781 C   0  0  0  0  0  0  0  0  0  0  0  0
   10.3850    4.6575   23.2386 O   0  0  0  0  0  0  0  0  0  0  0  0
    4.2069    6.8450   20.7994 C   0  0  0  0  0  0  0  0  0  0  0  0
    3.0726   10.1043   19.8522 O   0  0  0  0  0  0  0  0  0  0  0  0
    5.5057    7.1196   21.1155 C   0  0  0  0  0  0  0  0  0  0  0  0
    7.0367   11.0229   21.9948 O   0  0  0  0  0  0  0  0  0  0  0  0
  1  8  4  0
  1 12  4  0
  2  9  1  0
  2 11  4  0
  2 25  4  0
  3 12  4  0
  3 14  1  0
  3 23  4  0
  4 13  4  0
  4 21  4  0
  4 24  1  0
  5  8  4  0
  5 23  4  0
  6 18  2  0
  7 15  4  0
  7 16  1  0
  7 27  4  0
  8 18  1  0
 10 18  1  0
 10 20  1  0
 11 15  4  0
 11 26  1  0
 13 22  4  0
 16 19  1  0
 16 20  2  0
 17 19  4  0
 17 21  4  0
 19 22  4  0
 20 28  1  0
 25 27  4  0
M  END
$$$$

 Created by Python create_sdf_string function

 28 30  0  0  0  0  0  0  0  0999 V2000
   11.4592   11.2893   18.7941 C   0  0  0  0  0  0  0  0  0  0  0  0
    3.4202    7.9009   20.3866 C   0  0  0  0  0  0  0  0  0  0  0  0
   13.5280   10.3522   19.3586 C   0  0  0  0  0  0  0  0  0  0  0  0
    9.6923    5.6468   22.7891 C   0  0  0  0  0  0  0  0  0  0  0  0
   11.7756   10.2554   20.8841 N   0  0  0  0  0  0  0  0  0  0  0  0
    8.9876   11.9370   19.8757 O   0  0  0  0  0  0  0  0  0  0  0  0
    6.0167    8.4478   21.1089 C   0  0  0  0  0  0  0  0  0  0  0  0
   11.0002   10.8890   20.0262 C   0  0  0  0  0  0  0  0  0  0  0  0
    2.1721    7.7393   20.0315 O   0  0  0  0  0  0  0  0  0  0  0  0
    9.1107   10.3880   21.3769 N   0  0  0  0  0  0  0  0  0  0  0  0
    3.9102    9.2008   20.3124 C   0  0  0  0  0  0  0  0  0  0  0  0
   12.7292   10.9960   18.4597 C   0  0  0  0  0  0  0  0  0  0  0  0
    9.3798    6.6793   23.6625 C   0  0  0  0  0  0  0  0  0  0  0  0
   14.7425   10.0739   19.0802 O   0  0  0  0  0  0  0  0  0  0  0  0
    5.1894    9.4673   20.7118 C   0  0  0  0  0  0  0  0  0  0  0  0
    7.3773    8.8224   21.4870 C   0  0  0  0  0  0  0  0  0  0  0  0
    8.4391    6.6439   21.0235 C   0  0  0  0  0  0  0  0  0  0  0  0
    9.6494   11.1353   20.4167 C   0  0  0  0  0  0  0  0  0  0  0  0
    8.1431    7.6829   21.9046 C   0  0  0  0  0  0  0  0  0  0  0  0
    7.7796   10.1314   21.5115 N   0  0  0  0  0  0  0  0  0  0  0  0
    9.2768    5.6183   21.4437 C   0  0  0  0  0  0  0  0  0  0  0  0
    8.6315    7.7322   23.1768 C   0  0  0  0  0  0  0  0  0  0  0  0
   13.0537    9.9821   20.5781 C   0  0  0  0  0  0  0  0  0  0  0  0
   10.3850    4.6575   23.2386 O   0  0  0  0  0  0  0  0  0  0  0  0
    4.2069    6.8450   20.7994 C   0  0  0  0  0  0  0  0  0  0  0  0
    3.0726   10.1043   19.8522 O   0  0  0  0  0  0  0  0  0  0  0  0
    5.5057    7.1196   21.1155 C   0  0  0  0  0  0  0  0  0  0  0  0
    7.0367   11.0229   21.9948 O   0  0  0  0  0  0  0  0  0  0  0  0
  1  8  4  0
  1 12  4  0
  2  9  1  0
  2 11  4  0
  2 25  4  0
  3 12  4  0
  3 14  1  0
  3 23  4  0
  4 13  4  0
  4 21  4  0
  4 24  1  0
  5  8  4  0
  5 23  4  0
  6 18  2  0
  7 15  4  0
  7 16  1  0
  7 27  4  0
  8 18  1  0
 10 18  1  0
 10 20  1  0
 11 15  4  0
 11 26  1  0
 13 22  4  0
 16 19  1  0
 16 20  2  0
 17 19  4  0
 17 21  4  0
 19 22  4  0
 20 28  1  0
 25 27  4  0
M  END
$$$$

 Created by Python create_sdf_string function

 28 30  0  0  0  0  0  0  0  0999 V2000
   11.4592   11.2893   18.7941 C   0  0  0  0  0  0  0  0  0  0  0  0
    3.4202    7.9009   20.3866 C   0  0  0  0  0  0  0  0  0  0  0  0
   13.5280   10.3522   19.3586 C   0  0  0  0  0  0  0  0  0  0  0  0
    9.6923    5.6468   22.7891 C   0  0  0  0  0  0  0  0  0  0  0  0
   11.7756   10.2554   20.8841 N   0  0  0  0  0  0  0  0  0  0  0  0
    8.9876   11.9370   19.8757 O   0  0  0  0  0  0  0  0  0  0  0  0
    6.0167    8.4478   21.1089 C   0  0  0  0  0  0  0  0  0  0  0  0
   11.0002   10.8890   20.0262 C   0  0  0  0  0  0  0  0  0  0  0  0
    2.1721    7.7393   20.0315 O   0  0  0  0  0  0  0  0  0  0  0  0
    9.1107   10.3880   21.3769 N   0  0  0  0  0  0  0  0  0  0  0  0
    3.9102    9.2008   20.3124 C   0  0  0  0  0  0  0  0  0  0  0  0
   12.7292   10.9960   18.4597 C   0  0  0  0  0  0  0  0  0  0  0  0
    9.3798    6.6793   23.6625 C   0  0  0  0  0  0  0  0  0  0  0  0
   14.7425   10.0739   19.0802 O   0  0  0  0  0  0  0  0  0  0  0  0
    5.1894    9.4673   20.7118 C   0  0  0  0  0  0  0  0  0  0  0  0
    7.3773    8.8224   21.4870 C   0  0  0  0  0  0  0  0  0  0  0  0
    8.4391    6.6439   21.0235 C   0  0  0  0  0  0  0  0  0  0  0  0
    9.6494   11.1353   20.4167 C   0  0  0  0  0  0  0  0  0  0  0  0
    8.1431    7.6829   21.9046 C   0  0  0  0  0  0  0  0  0  0  0  0
    7.7796   10.1314   21.5115 N   0  0  0  0  0  0  0  0  0  0  0  0
    9.2768    5.6183   21.4437 C   0  0  0  0  0  0  0  0  0  0  0  0
    8.6315    7.7322   23.1768 C   0  0  0  0  0  0  0  0  0  0  0  0
   13.0537    9.9821   20.5781 C   0  0  0  0  0  0  0  0  0  0  0  0
   10.3850    4.6575   23.2386 O   0  0  0  0  0  0  0  0  0  0  0  0
    4.2069    6.8450   20.7994 C   0  0  0  0  0  0  0  0  0  0  0  0
    3.0726   10.1043   19.8522 O   0  0  0  0  0  0  0  0  0  0  0  0
    5.5057    7.1196   21.1155 C   0  0  0  0  0  0  0  0  0  0  0  0
    7.0367   11.0229   21.9948 O   0  0  0  0  0  0  0  0  0  0  0  0
  1  8  4  0
  1 12  4  0
  2  9  1  0
  2 11  4  0
  2 25  4  0
  3 12  4  0
  3 14  1  0
  3 23  4  0
  4 13  4  0
  4 21  4  0
  4 24  1  0
  5  8  4  0
  5 23  4  0
  6 18  2  0
  7 15  4  0
  7 16  1  0
  7 27  4  0
  8 18  1  0
 10 18  1  0
 10 20  1  0
 11 15  4  0
 11 26  1  0
 13 22  4  0
 16 19  1  0
 16 20  2  0
 17 19  4  0
 17 21  4  0
 19 22  4  0
 20 28  1  0
 25 27  4  0
M  END
$$$$

 Created by Python create_sdf_string function

 28 30  0  0  0  0  0  0  0  0999 V2000
   11.4592   11.2893   18.7941 C   0  0  0  0  0  0  0  0  0  0  0  0
    3.4202    7.9009   20.3866 C   0  0  0  0  0  0  0  0  0  0  0  0
   13.5280   10.3522   19.3586 C   0  0  0  0  0  0  0  0  0  0  0  0
    9.6923    5.6468   22.7891 C   0  0  0  0  0  0  0  0  0  0  0  0
   11.7756   10.2554   20.8841 N   0  0  0  0  0  0  0  0  0  0  0  0
    8.9876   11.9370   19.8757 O   0  0  0  0  0  0  0  0  0  0  0  0
    6.0167    8.4478   21.1089 C   0  0  0  0  0  0  0  0  0  0  0  0
   11.0002   10.8890   20.0262 C   0  0  0  0  0  0  0  0  0  0  0  0
    2.1721    7.7393   20.0315 O   0  0  0  0  0  0  0  0  0  0  0  0
    9.1107   10.3880   21.3769 N   0  0  0  0  0  0  0  0  0  0  0  0
    3.9102    9.2008   20.3124 C   0  0  0  0  0  0  0  0  0  0  0  0
   12.7292   10.9960   18.4597 C   0  0  0  0  0  0  0  0  0  0  0  0
    9.3798    6.6793   23.6625 C   0  0  0  0  0  0  0  0  0  0  0  0
   14.7425   10.0739   19.0802 O   0  0  0  0  0  0  0  0  0  0  0  0
    5.1894    9.4673   20.7118 C   0  0  0  0  0  0  0  0  0  0  0  0
    7.3773    8.8224   21.4870 C   0  0  0  0  0  0  0  0  0  0  0  0
    8.4391    6.6439   21.0235 C   0  0  0  0  0  0  0  0  0  0  0  0
    9.6494   11.1353   20.4167 C   0  0  0  0  0  0  0  0  0  0  0  0
    8.1431    7.6829   21.9046 C   0  0  0  0  0  0  0  0  0  0  0  0
    7.7796   10.1314   21.5115 N   0  0  0  0  0  0  0  0  0  0  0  0
    9.2768    5.6183   21.4437 C   0  0  0  0  0  0  0  0  0  0  0  0
    8.6315    7.7322   23.1768 C   0  0  0  0  0  0  0  0  0  0  0  0
   13.0537    9.9821   20.5781 C   0  0  0  0  0  0  0  0  0  0  0  0
   10.3850    4.6575   23.2386 O   0  0  0  0  0  0  0  0  0  0  0  0
    4.2069    6.8450   20.7994 C   0  0  0  0  0  0  0  0  0  0  0  0
    3.0726   10.1043   19.8522 O   0  0  0  0  0  0  0  0  0  0  0  0
    5.5057    7.1196   21.1155 C   0  0  0  0  0  0  0  0  0  0  0  0
    7.0367   11.0229   21.9948 O   0  0  0  0  0  0  0  0  0  0  0  0
  1  8  4  0
  1 12  4  0
  2  9  1  0
  2 11  4  0
  2 25  4  0
  3 12  4  0
  3 14  1  0
  3 23  4  0
  4 13  4  0
  4 21  4  0
  4 24  1  0
  5  8  4  0
  5 23  4  0
  6 18  2  0
  7 15  4  0
  7 16  1  0
  7 27  4  0
  8 18  1  0
 10 18  1  0
 10 20  1  0
 11 15  4  0
 11 26  1  0
 13 22  4  0
 16 19  1  0
 16 20  2  0
 17 19  4  0
 17 21  4  0
 19 22  4  0
 20 28  1  0
 25 27  4  0
M  END
$$$$

 Created by Python create_sdf_string function

 28 30  0  0  0  0  0  0  0  0999 V2000
   11.4592   11.2893   18.7941 C   0  0  0  0  0  0  0  0  0  0  0  0
    3.4202    7.9009   20.3866 C   0  0  0  0  0  0  0  0  0  0  0  0
   13.5280   10.3522   19.3586 C   0  0  0  0  0  0  0  0  0  0  0  0
    9.6923    5.6468   22.7891 C   0  0  0  0  0  0  0  0  0  0  0  0
   11.7756   10.2554   20.8841 N   0  0  0  0  0  0  0  0  0  0  0  0
    8.9876   11.9370   19.8757 O   0  0  0  0  0  0  0  0  0  0  0  0
    6.0167    8.4478   21.1089 C   0  0  0  0  0  0  0  0  0  0  0  0
   11.0002   10.8890   20.0262 C   0  0  0  0  0  0  0  0  0  0  0  0
    2.1721    7.7393   20.0315 O   0  0  0  0  0  0  0  0  0  0  0  0
    9.1107   10.3880   21.3769 N   0  0  0  0  0  0  0  0  0  0  0  0
    3.9102    9.2008   20.3124 C   0  0  0  0  0  0  0  0  0  0  0  0
   12.7292   10.9960   18.4597 C   0  0  0  0  0  0  0  0  0  0  0  0
    9.3798    6.6793   23.6625 C   0  0  0  0  0  0  0  0  0  0  0  0
   14.7425   10.0739   19.0802 O   0  0  0  0  0  0  0  0  0  0  0  0
    5.1894    9.4673   20.7118 C   0  0  0  0  0  0  0  0  0  0  0  0
    7.3773    8.8224   21.4870 C   0  0  0  0  0  0  0  0  0  0  0  0
    8.4391    6.6439   21.0235 C   0  0  0  0  0  0  0  0  0  0  0  0
    9.6494   11.1353   20.4167 C   0  0  0  0  0  0  0  0  0  0  0  0
    8.1431    7.6829   21.9046 C   0  0  0  0  0  0  0  0  0  0  0  0
    7.7796   10.1314   21.5115 N   0  0  0  0  0  0  0  0  0  0  0  0
    9.2768    5.6183   21.4437 C   0  0  0  0  0  0  0  0  0  0  0  0
    8.6315    7.7322   23.1768 C   0  0  0  0  0  0  0  0  0  0  0  0
   13.0537    9.9821   20.5781 C   0  0  0  0  0  0  0  0  0  0  0  0
   10.3850    4.6575   23.2386 O   0  0  0  0  0  0  0  0  0  0  0  0
    4.2069    6.8450   20.7994 C   0  0  0  0  0  0  0  0  0  0  0  0
    3.0726   10.1043   19.8522 O   0  0  0  0  0  0  0  0  0  0  0  0
    5.5057    7.1196   21.1155 C   0  0  0  0  0  0  0  0  0  0  0  0
    7.0367   11.0229   21.9948 O   0  0  0  0  0  0  0  0  0  0  0  0
  1  8  4  0
  1 12  4  0
  2  9  1  0
  2 11  4  0
  2 25  4  0
  3 12  4  0
  3 14  1  0
  3 23  4  0
  4 13  4  0
  4 21  4  0
  4 24  1  0
  5  8  4  0
  5 23  4  0
  6 18  2  0
  7 15  4  0
  7 16  1  0
  7 27  4  0
  8 18  1  0
 10 18  1  0
 10 20  1  0
 11 15  4  0
 11 26  1  0
 13 22  4  0
 16 19  1  0
 16 20  2  0
 17 19  4  0
 17 21  4  0
 19 22  4  0
 20 28  1  0
 25 27  4  0
M  END
$$$$

 Created by Python create_sdf_string function

 28 30  0  0  0  0  0  0  0  0999 V2000
   11.4592   11.2893   18.7941 C   0  0  0  0  0  0  0  0  0  0  0  0
    3.4202    7.9009   20.3866 C   0  0  0  0  0  0  0  0  0  0  0  0
   13.5280   10.3522   19.3586 C   0  0  0  0  0  0  0  0  0  0  0  0
    9.6923    5.6468   22.7891 C   0  0  0  0  0  0  0  0  0  0  0  0
   11.7756   10.2554   20.8841 N   0  0  0  0  0  0  0  0  0  0  0  0
    8.9876   11.9370   19.8757 O   0  0  0  0  0  0  0  0  0  0  0  0
    6.0167    8.4478   21.1089 C   0  0  0  0  0  0  0  0  0  0  0  0
   11.0002   10.8890   20.0262 C   0  0  0  0  0  0  0  0  0  0  0  0
    2.1721    7.7393   20.0315 O   0  0  0  0  0  0  0  0  0  0  0  0
    9.1107   10.3880   21.3769 N   0  0  0  0  0  0  0  0  0  0  0  0
    3.9102    9.2008   20.3124 C   0  0  0  0  0  0  0  0  0  0  0  0
   12.7292   10.9960   18.4597 C   0  0  0  0  0  0  0  0  0  0  0  0
    9.3798    6.6793   23.6625 C   0  0  0  0  0  0  0  0  0  0  0  0
   14.7425   10.0739   19.0802 O   0  0  0  0  0  0  0  0  0  0  0  0
    5.1894    9.4673   20.7118 C   0  0  0  0  0  0  0  0  0  0  0  0
    7.3773    8.8224   21.4870 C   0  0  0  0  0  0  0  0  0  0  0  0
    8.4391    6.6439   21.0235 C   0  0  0  0  0  0  0  0  0  0  0  0
    9.6494   11.1353   20.4167 C   0  0  0  0  0  0  0  0  0  0  0  0
    8.1431    7.6829   21.9046 C   0  0  0  0  0  0  0  0  0  0  0  0
    7.7796   10.1314   21.5115 N   0  0  0  0  0  0  0  0  0  0  0  0
    9.2768    5.6183   21.4437 C   0  0  0  0  0  0  0  0  0  0  0  0
    8.6315    7.7322   23.1768 C   0  0  0  0  0  0  0  0  0  0  0  0
   13.0537    9.9821   20.5781 C   0  0  0  0  0  0  0  0  0  0  0  0
   10.3850    4.6575   23.2386 O   0  0  0  0  0  0  0  0  0  0  0  0
    4.2069    6.8450   20.7994 C   0  0  0  0  0  0  0  0  0  0  0  0
    3.0726   10.1043   19.8522 O   0  0  0  0  0  0  0  0  0  0  0  0
    5.5057    7.1196   21.1155 C   0  0  0  0  0  0  0  0  0  0  0  0
    7.0367   11.0229   21.9948 O   0  0  0  0  0  0  0  0  0  0  0  0
  1  8  4  0
  1 12  4  0
  2  9  1  0
  2 11  4  0
  2 25  4  0
  3 12  4  0
  3 14  1  0
  3 23  4  0
  4 13  4  0
  4 21  4  0
  4 24  1  0
  5  8  4  0
  5 23  4  0
  6 18  2  0
  7 15  4  0
  7 16  1  0
  7 27  4  0
  8 18  1  0
 10 18  1  0
 10 20  1  0
 11 15  4  0
 11 26  1  0
 13 22  4  0
 16 19  1  0
 16 20  2  0
 17 19  4  0
 17 21  4  0
 19 22  4  0
 20 28  1  0
 25 27  4  0
M  END
$$$$

 Created by Python create_sdf_string function

 28 30  0  0  0  0  0  0  0  0999 V2000
   11.4592   11.2893   18.7941 C   0  0  0  0  0  0  0  0  0  0  0  0
    3.4202    7.9009   20.3866 C   0  0  0  0  0  0  0  0  0  0  0  0
   13.5280   10.3522   19.3586 C   0  0  0  0  0  0  0  0  0  0  0  0
    9.6923    5.6468   22.7891 C   0  0  0  0  0  0  0  0  0  0  0  0
   11.7756   10.2554   20.8841 N   0  0  0  0  0  0  0  0  0  0  0  0
    8.9876   11.9370   19.8757 O   0  0  0  0  0  0  0  0  0  0  0  0
    6.0167    8.4478   21.1089 C   0  0  0  0  0  0  0  0  0  0  0  0
   11.0002   10.8890   20.0262 C   0  0  0  0  0  0  0  0  0  0  0  0
    2.1721    7.7393   20.0315 O   0  0  0  0  0  0  0  0  0  0  0  0
    9.1107   10.3880   21.3769 N   0  0  0  0  0  0  0  0  0  0  0  0
    3.9102    9.2008   20.3124 C   0  0  0  0  0  0  0  0  0  0  0  0
   12.7292   10.9960   18.4597 C   0  0  0  0  0  0  0  0  0  0  0  0
    9.3798    6.6793   23.6625 C   0  0  0  0  0  0  0  0  0  0  0  0
   14.7425   10.0739   19.0802 O   0  0  0  0  0  0  0  0  0  0  0  0
    5.1894    9.4673   20.7118 C   0  0  0  0  0  0  0  0  0  0  0  0
    7.3773    8.8224   21.4870 C   0  0  0  0  0  0  0  0  0  0  0  0
    8.4391    6.6439   21.0235 C   0  0  0  0  0  0  0  0  0  0  0  0
    9.6494   11.1353   20.4167 C   0  0  0  0  0  0  0  0  0  0  0  0
    8.1431    7.6829   21.9046 C   0  0  0  0  0  0  0  0  0  0  0  0
    7.7796   10.1314   21.5115 N   0  0  0  0  0  0  0  0  0  0  0  0
    9.2768    5.6183   21.4437 C   0  0  0  0  0  0  0  0  0  0  0  0
    8.6315    7.7322   23.1768 C   0  0  0  0  0  0  0  0  0  0  0  0
   13.0537    9.9821   20.5781 C   0  0  0  0  0  0  0  0  0  0  0  0
   10.3850    4.6575   23.2386 O   0  0  0  0  0  0  0  0  0  0  0  0
    4.2069    6.8450   20.7994 C   0  0  0  0  0  0  0  0  0  0  0  0
    3.0726   10.1043   19.8522 O   0  0  0  0  0  0  0  0  0  0  0  0
    5.5057    7.1196   21.1155 C   0  0  0  0  0  0  0  0  0  0  0  0
    7.0367   11.0229   21.9948 O   0  0  0  0  0  0  0  0  0  0  0  0
  1  8  4  0
  1 12  4  0
  2  9  1  0
  2 11  4  0
  2 25  4  0
  3 12  4  0
  3 14  1  0
  3 23  4  0
  4 13  4  0
  4 21  4  0
  4 24  1  0
  5  8  4  0
  5 23  4  0
  6 18  2  0
  7 15  4  0
  7 16  1  0
  7 27  4  0
  8 18  1  0
 10 18  1  0
 10 20  1  0
 11 15  4  0
 11 26  1  0
 13 22  4  0
 16 19  1  0
 16 20  2  0
 17 19  4  0
 17 21  4  0
 19 22  4  0
 20 28  1  0
 25 27  4  0
M  END
$$$$

 Created by Python create_sdf_string function

 28 30  0  0  0  0  0  0  0  0999 V2000
   11.4592   11.2893   18.7941 C   0  0  0  0  0  0  0  0  0  0  0  0
    3.4202    7.9009   20.3866 C   0  0  0  0  0  0  0  0  0  0  0  0
   13.5280   10.3522   19.3586 C   0  0  0  0  0  0  0  0  0  0  0  0
    9.6923    5.6468   22.7891 C   0  0  0  0  0  0  0  0  0  0  0  0
   11.7756   10.2554   20.8841 N   0  0  0  0  0  0  0  0  0  0  0  0
    8.9876   11.9370   19.8757 O   0  0  0  0  0  0  0  0  0  0  0  0
    6.0167    8.4478   21.1089 C   0  0  0  0  0  0  0  0  0  0  0  0
   11.0002   10.8890   20.0262 C   0  0  0  0  0  0  0  0  0  0  0  0
    2.1721    7.7393   20.0315 O   0  0  0  0  0  0  0  0  0  0  0  0
    9.1107   10.3880   21.3769 N   0  0  0  0  0  0  0  0  0  0  0  0
    3.9102    9.2008   20.3124 C   0  0  0  0  0  0  0  0  0  0  0  0
   12.7292   10.9960   18.4597 C   0  0  0  0  0  0  0  0  0  0  0  0
    9.3798    6.6793   23.6625 C   0  0  0  0  0  0  0  0  0  0  0  0
   14.7425   10.0739   19.0802 O   0  0  0  0  0  0  0  0  0  0  0  0
    5.1894    9.4673   20.7118 C   0  0  0  0  0  0  0  0  0  0  0  0
    7.3773    8.8224   21.4870 C   0  0  0  0  0  0  0  0  0  0  0  0
    8.4391    6.6439   21.0235 C   0  0  0  0  0  0  0  0  0  0  0  0
    9.6494   11.1353   20.4167 C   0  0  0  0  0  0  0  0  0  0  0  0
    8.1431    7.6829   21.9046 C   0  0  0  0  0  0  0  0  0  0  0  0
    7.7796   10.1314   21.5115 N   0  0  0  0  0  0  0  0  0  0  0  0
    9.2768    5.6183   21.4437 C   0  0  0  0  0  0  0  0  0  0  0  0
    8.6315    7.7322   23.1768 C   0  0  0  0  0  0  0  0  0  0  0  0
   13.0537    9.9821   20.5781 C   0  0  0  0  0  0  0  0  0  0  0  0
   10.3850    4.6575   23.2386 O   0  0  0  0  0  0  0  0  0  0  0  0
    4.2069    6.8450   20.7994 C   0  0  0  0  0  0  0  0  0  0  0  0
    3.0726   10.1043   19.8522 O   0  0  0  0  0  0  0  0  0  0  0  0
    5.5057    7.1196   21.1155 C   0  0  0  0  0  0  0  0  0  0  0  0
    7.0367   11.0229   21.9948 O   0  0  0  0  0  0  0  0  0  0  0  0
  1  8  4  0
  1 12  4  0
  2  9  1  0
  2 11  4  0
  2 25  4  0
  3 12  4  0
  3 14  1  0
  3 23  4  0
  4 13  4  0
  4 21  4  0
  4 24  1  0
  5  8  4  0
  5 23  4  0
  6 18  2  0
  7 15  4  0
  7 16  1  0
  7 27  4  0
  8 18  1  0
 10 18  1  0
 10 20  1  0
 11 15  4  0
 11 26  1  0
 13 22  4  0
 16 19  1  0
 16 20  2  0
 17 19  4  0
 17 21  4  0
 19 22  4  0
 20 28  1  0
 25 27  4  0
M  END
$$$$

 Created by Python create_sdf_string function

 28 30  0  0  0  0  0  0  0  0999 V2000
   11.4592   11.2893   18.7941 C   0  0  0  0  0  0  0  0  0  0  0  0
    3.4202    7.9009   20.3866 C   0  0  0  0  0  0  0  0  0  0  0  0
   13.5280   10.3522   19.3586 C   0  0  0  0  0  0  0  0  0  0  0  0
    9.6923    5.6468   22.7891 C   0  0  0  0  0  0  0  0  0  0  0  0
   11.7756   10.2554   20.8841 N   0  0  0  0  0  0  0  0  0  0  0  0
    8.9876   11.9370   19.8757 O   0  0  0  0  0  0  0  0  0  0  0  0
    6.0167    8.4478   21.1089 C   0  0  0  0  0  0  0  0  0  0  0  0
   11.0002   10.8890   20.0262 C   0  0  0  0  0  0  0  0  0  0  0  0
    2.1721    7.7393   20.0315 O   0  0  0  0  0  0  0  0  0  0  0  0
    9.1107   10.3880   21.3769 N   0  0  0  0  0  0  0  0  0  0  0  0
    3.9102    9.2008   20.3124 C   0  0  0  0  0  0  0  0  0  0  0  0
   12.7292   10.9960   18.4597 C   0  0  0  0  0  0  0  0  0  0  0  0
    9.3798    6.6793   23.6625 C   0  0  0  0  0  0  0  0  0  0  0  0
   14.7425   10.0739   19.0802 O   0  0  0  0  0  0  0  0  0  0  0  0
    5.1894    9.4673   20.7118 C   0  0  0  0  0  0  0  0  0  0  0  0
    7.3773    8.8224   21.4870 C   0  0  0  0  0  0  0  0  0  0  0  0
    8.4391    6.6439   21.0235 C   0  0  0  0  0  0  0  0  0  0  0  0
    9.6494   11.1353   20.4167 C   0  0  0  0  0  0  0  0  0  0  0  0
    8.1431    7.6829   21.9046 C   0  0  0  0  0  0  0  0  0  0  0  0
    7.7796   10.1314   21.5115 N   0  0  0  0  0  0  0  0  0  0  0  0
    9.2768    5.6183   21.4437 C   0  0  0  0  0  0  0  0  0  0  0  0
    8.6315    7.7322   23.1768 C   0  0  0  0  0  0  0  0  0  0  0  0
   13.0537    9.9821   20.5781 C   0  0  0  0  0  0  0  0  0  0  0  0
   10.3850    4.6575   23.2386 O   0  0  0  0  0  0  0  0  0  0  0  0
    4.2069    6.8450   20.7994 C   0  0  0  0  0  0  0  0  0  0  0  0
    3.0726   10.1043   19.8522 O   0  0  0  0  0  0  0  0  0  0  0  0
    5.5057    7.1196   21.1155 C   0  0  0  0  0  0  0  0  0  0  0  0
    7.0367   11.0229   21.9948 O   0  0  0  0  0  0  0  0  0  0  0  0
  1  8  4  0
  1 12  4  0
  2  9  1  0
  2 11  4  0
  2 25  4  0
  3 12  4  0
  3 14  1  0
  3 23  4  0
  4 13  4  0
  4 21  4  0
  4 24  1  0
  5  8  4  0
  5 23  4  0
  6 18  2  0
  7 15  4  0
  7 16  1  0
  7 27  4  0
  8 18  1  0
 10 18  1  0
 10 20  1  0
 11 15  4  0
 11 26  1  0
 13 22  4  0
 16 19  1  0
 16 20  2  0
 17 19  4  0
 17 21  4  0
 19 22  4  0
 20 28  1  0
 25 27  4  0
M  END
$$$$

 Created by Python create_sdf_string function

 28 30  0  0  0  0  0  0  0  0999 V2000
   11.4592   11.2893   18.7941 C   0  0  0  0  0  0  0  0  0  0  0  0
    3.4202    7.9009   20.3866 C   0  0  0  0  0  0  0  0  0  0  0  0
   13.5280   10.3522   19.3586 C   0  0  0  0  0  0  0  0  0  0  0  0
    9.6923    5.6468   22.7891 C   0  0  0  0  0  0  0  0  0  0  0  0
   11.7756   10.2554   20.8841 N   0  0  0  0  0  0  0  0  0  0  0  0
    8.9876   11.9370   19.8757 O   0  0  0  0  0  0  0  0  0  0  0  0
    6.0167    8.4478   21.1089 C   0  0  0  0  0  0  0  0  0  0  0  0
   11.0002   10.8890   20.0262 C   0  0  0  0  0  0  0  0  0  0  0  0
    2.1721    7.7393   20.0315 O   0  0  0  0  0  0  0  0  0  0  0  0
    9.1107   10.3880   21.3769 N   0  0  0  0  0  0  0  0  0  0  0  0
    3.9102    9.2008   20.3124 C   0  0  0  0  0  0  0  0  0  0  0  0
   12.7292   10.9960   18.4597 C   0  0  0  0  0  0  0  0  0  0  0  0
    9.3798    6.6793   23.6625 C   0  0  0  0  0  0  0  0  0  0  0  0
   14.7425   10.0739   19.0802 O   0  0  0  0  0  0  0  0  0  0  0  0
    5.1894    9.4673   20.7118 C   0  0  0  0  0  0  0  0  0  0  0  0
    7.3773    8.8224   21.4870 C   0  0  0  0  0  0  0  0  0  0  0  0
    8.4391    6.6439   21.0235 C   0  0  0  0  0  0  0  0  0  0  0  0
    9.6494   11.1353   20.4167 C   0  0  0  0  0  0  0  0  0  0  0  0
    8.1431    7.6829   21.9046 C   0  0  0  0  0  0  0  0  0  0  0  0
    7.7796   10.1314   21.5115 N   0  0  0  0  0  0  0  0  0  0  0  0
    9.2768    5.6183   21.4437 C   0  0  0  0  0  0  0  0  0  0  0  0
    8.6315    7.7322   23.1768 C   0  0  0  0  0  0  0  0  0  0  0  0
   13.0537    9.9821   20.5781 C   0  0  0  0  0  0  0  0  0  0  0  0
   10.3850    4.6575   23.2386 O   0  0  0  0  0  0  0  0  0  0  0  0
    4.2069    6.8450   20.7994 C   0  0  0  0  0  0  0  0  0  0  0  0
    3.0726   10.1043   19.8522 O   0  0  0  0  0  0  0  0  0  0  0  0
    5.5057    7.1196   21.1155 C   0  0  0  0  0  0  0  0  0  0  0  0
    7.0367   11.0229   21.9948 O   0  0  0  0  0  0  0  0  0  0  0  0
  1  8  4  0
  1 12  4  0
  2  9  1  0
  2 11  4  0
  2 25  4  0
  3 12  4  0
  3 14  1  0
  3 23  4  0
  4 13  4  0
  4 21  4  0
  4 24  1  0
  5  8  4  0
  5 23  4  0
  6 18  2  0
  7 15  4  0
  7 16  1  0
  7 27  4  0
  8 18  1  0
 10 18  1  0
 10 20  1  0
 11 15  4  0
 11 26  1  0
 13 22  4  0
 16 19  1  0
 16 20  2  0
 17 19  4  0
 17 21  4  0
 19 22  4  0
 20 28  1  0
 25 27  4  0
M  END
$$$$

 Created by Python create_sdf_string function

 28 30  0  0  0  0  0  0  0  0999 V2000
   11.4592   11.2893   18.7941 C   0  0  0  0  0  0  0  0  0  0  0  0
    3.4202    7.9009   20.3866 C   0  0  0  0  0  0  0  0  0  0  0  0
   13.5280   10.3522   19.3586 C   0  0  0  0  0  0  0  0  0  0  0  0
    9.6923    5.6468   22.7891 C   0  0  0  0  0  0  0  0  0  0  0  0
   11.7756   10.2554   20.8841 N   0  0  0  0  0  0  0  0  0  0  0  0
    8.9876   11.9370   19.8757 O   0  0  0  0  0  0  0  0  0  0  0  0
    6.0167    8.4478   21.1089 C   0  0  0  0  0  0  0  0  0  0  0  0
   11.0002   10.8890   20.0262 C   0  0  0  0  0  0  0  0  0  0  0  0
    2.1721    7.7393   20.0315 O   0  0  0  0  0  0  0  0  0  0  0  0
    9.1107   10.3880   21.3769 N   0  0  0  0  0  0  0  0  0  0  0  0
    3.9102    9.2008   20.3124 C   0  0  0  0  0  0  0  0  0  0  0  0
   12.7292   10.9960   18.4597 C   0  0  0  0  0  0  0  0  0  0  0  0
    9.3798    6.6793   23.6625 C   0  0  0  0  0  0  0  0  0  0  0  0
   14.7425   10.0739   19.0802 O   0  0  0  0  0  0  0  0  0  0  0  0
    5.1894    9.4673   20.7118 C   0  0  0  0  0  0  0  0  0  0  0  0
    7.3773    8.8224   21.4870 C   0  0  0  0  0  0  0  0  0  0  0  0
    8.4391    6.6439   21.0235 C   0  0  0  0  0  0  0  0  0  0  0  0
    9.6494   11.1353   20.4167 C   0  0  0  0  0  0  0  0  0  0  0  0
    8.1431    7.6829   21.9046 C   0  0  0  0  0  0  0  0  0  0  0  0
    7.7796   10.1314   21.5115 N   0  0  0  0  0  0  0  0  0  0  0  0
    9.2768    5.6183   21.4437 C   0  0  0  0  0  0  0  0  0  0  0  0
    8.6315    7.7322   23.1768 C   0  0  0  0  0  0  0  0  0  0  0  0
   13.0537    9.9821   20.5781 C   0  0  0  0  0  0  0  0  0  0  0  0
   10.3850    4.6575   23.2386 O   0  0  0  0  0  0  0  0  0  0  0  0
    4.2069    6.8450   20.7994 C   0  0  0  0  0  0  0  0  0  0  0  0
    3.0726   10.1043   19.8522 O   0  0  0  0  0  0  0  0  0  0  0  0
    5.5057    7.1196   21.1155 C   0  0  0  0  0  0  0  0  0  0  0  0
    7.0367   11.0229   21.9948 O   0  0  0  0  0  0  0  0  0  0  0  0
  1  8  4  0
  1 12  4  0
  2  9  1  0
  2 11  4  0
  2 25  4  0
  3 12  4  0
  3 14  1  0
  3 23  4  0
  4 13  4  0
  4 21  4  0
  4 24  1  0
  5  8  4  0
  5 23  4  0
  6 18  2  0
  7 15  4  0
  7 16  1  0
  7 27  4  0
  8 18  1  0
 10 18  1  0
 10 20  1  0
 11 15  4  0
 11 26  1  0
 13 22  4  0
 16 19  1  0
 16 20  2  0
 17 19  4  0
 17 21  4  0
 19 22  4  0
 20 28  1  0
 25 27  4  0
M  END
$$$$

 Created by Python create_sdf_string function

 28 30  0  0  0  0  0  0  0  0999 V2000
   11.4592   11.2893   18.7941 C   0  0  0  0  0  0  0  0  0  0  0  0
    3.4202    7.9009   20.3866 C   0  0  0  0  0  0  0  0  0  0  0  0
   13.5280   10.3522   19.3586 C   0  0  0  0  0  0  0  0  0  0  0  0
    9.6923    5.6468   22.7891 C   0  0  0  0  0  0  0  0  0  0  0  0
   11.7756   10.2554   20.8841 N   0  0  0  0  0  0  0  0  0  0  0  0
    8.9876   11.9370   19.8757 O   0  0  0  0  0  0  0  0  0  0  0  0
    6.0167    8.4478   21.1089 C   0  0  0  0  0  0  0  0  0  0  0  0
   11.0002   10.8890   20.0262 C   0  0  0  0  0  0  0  0  0  0  0  0
    2.1721    7.7393   20.0315 O   0  0  0  0  0  0  0  0  0  0  0  0
    9.1107   10.3880   21.3769 N   0  0  0  0  0  0  0  0  0  0  0  0
    3.9102    9.2008   20.3124 C   0  0  0  0  0  0  0  0  0  0  0  0
   12.7292   10.9960   18.4597 C   0  0  0  0  0  0  0  0  0  0  0  0
    9.3798    6.6793   23.6625 C   0  0  0  0  0  0  0  0  0  0  0  0
   14.7425   10.0739   19.0802 O   0  0  0  0  0  0  0  0  0  0  0  0
    5.1894    9.4673   20.7118 C   0  0  0  0  0  0  0  0  0  0  0  0
    7.3773    8.8224   21.4870 C   0  0  0  0  0  0  0  0  0  0  0  0
    8.4391    6.6439   21.0235 C   0  0  0  0  0  0  0  0  0  0  0  0
    9.6494   11.1353   20.4167 C   0  0  0  0  0  0  0  0  0  0  0  0
    8.1431    7.6829   21.9046 C   0  0  0  0  0  0  0  0  0  0  0  0
    7.7796   10.1314   21.5115 N   0  0  0  0  0  0  0  0  0  0  0  0
    9.2768    5.6183   21.4437 C   0  0  0  0  0  0  0  0  0  0  0  0
    8.6315    7.7322   23.1768 C   0  0  0  0  0  0  0  0  0  0  0  0
   13.0537    9.9821   20.5781 C   0  0  0  0  0  0  0  0  0  0  0  0
   10.3850    4.6575   23.2386 O   0  0  0  0  0  0  0  0  0  0  0  0
    4.2069    6.8450   20.7994 C   0  0  0  0  0  0  0  0  0  0  0  0
    3.0726   10.1043   19.8522 O   0  0  0  0  0  0  0  0  0  0  0  0
    5.5057    7.1196   21.1155 C   0  0  0  0  0  0  0  0  0  0  0  0
    7.0367   11.0229   21.9948 O   0  0  0  0  0  0  0  0  0  0  0  0
  1  8  4  0
  1 12  4  0
  2  9  1  0
  2 11  4  0
  2 25  4  0
  3 12  4  0
  3 14  1  0
  3 23  4  0
  4 13  4  0
  4 21  4  0
  4 24  1  0
  5  8  4  0
  5 23  4  0
  6 18  2  0
  7 15  4  0
  7 16  1  0
  7 27  4  0
  8 18  1  0
 10 18  1  0
 10 20  1  0
 11 15  4  0
 11 26  1  0
 13 22  4  0
 16 19  1  0
 16 20  2  0
 17 19  4  0
 17 21  4  0
 19 22  4  0
 20 28  1  0
 25 27  4  0
M  END
$$$$

 Created by Python create_sdf_string function

 28 30  0  0  0  0  0  0  0  0999 V2000
   11.4592   11.2893   18.7941 C   0  0  0  0  0  0  0  0  0  0  0  0
    3.4202    7.9009   20.3866 C   0  0  0  0  0  0  0  0  0  0  0  0
   13.5280   10.3522   19.3586 C   0  0  0  0  0  0  0  0  0  0  0  0
    9.6923    5.6468   22.7891 C   0  0  0  0  0  0  0  0  0  0  0  0
   11.7756   10.2554   20.8841 N   0  0  0  0  0  0  0  0  0  0  0  0
    8.9876   11.9370   19.8757 O   0  0  0  0  0  0  0  0  0  0  0  0
    6.0167    8.4478   21.1089 C   0  0  0  0  0  0  0  0  0  0  0  0
   11.0002   10.8890   20.0262 C   0  0  0  0  0  0  0  0  0  0  0  0
    2.1721    7.7393   20.0315 O   0  0  0  0  0  0  0  0  0  0  0  0
    9.1107   10.3880   21.3769 N   0  0  0  0  0  0  0  0  0  0  0  0
    3.9102    9.2008   20.3124 C   0  0  0  0  0  0  0  0  0  0  0  0
   12.7292   10.9960   18.4597 C   0  0  0  0  0  0  0  0  0  0  0  0
    9.3798    6.6793   23.6625 C   0  0  0  0  0  0  0  0  0  0  0  0
   14.7425   10.0739   19.0802 O   0  0  0  0  0  0  0  0  0  0  0  0
    5.1894    9.4673   20.7118 C   0  0  0  0  0  0  0  0  0  0  0  0
    7.3773    8.8224   21.4870 C   0  0  0  0  0  0  0  0  0  0  0  0
    8.4391    6.6439   21.0235 C   0  0  0  0  0  0  0  0  0  0  0  0
    9.6494   11.1353   20.4167 C   0  0  0  0  0  0  0  0  0  0  0  0
    8.1431    7.6829   21.9046 C   0  0  0  0  0  0  0  0  0  0  0  0
    7.7796   10.1314   21.5115 N   0  0  0  0  0  0  0  0  0  0  0  0
    9.2768    5.6183   21.4437 C   0  0  0  0  0  0  0  0  0  0  0  0
    8.6315    7.7322   23.1768 C   0  0  0  0  0  0  0  0  0  0  0  0
   13.0537    9.9821   20.5781 C   0  0  0  0  0  0  0  0  0  0  0  0
   10.3850    4.6575   23.2386 O   0  0  0  0  0  0  0  0  0  0  0  0
    4.2069    6.8450   20.7994 C   0  0  0  0  0  0  0  0  0  0  0  0
    3.0726   10.1043   19.8522 O   0  0  0  0  0  0  0  0  0  0  0  0
    5.5057    7.1196   21.1155 C   0  0  0  0  0  0  0  0  0  0  0  0
    7.0367   11.0229   21.9948 O   0  0  0  0  0  0  0  0  0  0  0  0
  1  8  4  0
  1 12  4  0
  2  9  1  0
  2 11  4  0
  2 25  4  0
  3 12  4  0
  3 14  1  0
  3 23  4  0
  4 13  4  0
  4 21  4  0
  4 24  1  0
  5  8  4  0
  5 23  4  0
  6 18  2  0
  7 15  4  0
  7 16  1  0
  7 27  4  0
  8 18  1  0
 10 18  1  0
 10 20  1  0
 11 15  4  0
 11 26  1  0
 13 22  4  0
 16 19  1  0
 16 20  2  0
 17 19  4  0
 17 21  4  0
 19 22  4  0
 20 28  1  0
 25 27  4  0
M  END
$$$$

 Created by Python create_sdf_string function

 28 30  0  0  0  0  0  0  0  0999 V2000
   11.4592   11.2893   18.7941 C   0  0  0  0  0  0  0  0  0  0  0  0
    3.4202    7.9009   20.3866 C   0  0  0  0  0  0  0  0  0  0  0  0
   13.5280   10.3522   19.3586 C   0  0  0  0  0  0  0  0  0  0  0  0
    9.6923    5.6468   22.7891 C   0  0  0  0  0  0  0  0  0  0  0  0
   11.7756   10.2554   20.8841 N   0  0  0  0  0  0  0  0  0  0  0  0
    8.9876   11.9370   19.8757 O   0  0  0  0  0  0  0  0  0  0  0  0
    6.0167    8.4478   21.1089 C   0  0  0  0  0  0  0  0  0  0  0  0
   11.0002   10.8890   20.0262 C   0  0  0  0  0  0  0  0  0  0  0  0
    2.1721    7.7393   20.0315 O   0  0  0  0  0  0  0  0  0  0  0  0
    9.1107   10.3880   21.3769 N   0  0  0  0  0  0  0  0  0  0  0  0
    3.9102    9.2008   20.3124 C   0  0  0  0  0  0  0  0  0  0  0  0
   12.7292   10.9960   18.4597 C   0  0  0  0  0  0  0  0  0  0  0  0
    9.3798    6.6793   23.6625 C   0  0  0  0  0  0  0  0  0  0  0  0
   14.7425   10.0739   19.0802 O   0  0  0  0  0  0  0  0  0  0  0  0
    5.1894    9.4673   20.7118 C   0  0  0  0  0  0  0  0  0  0  0  0
    7.3773    8.8224   21.4870 C   0  0  0  0  0  0  0  0  0  0  0  0
    8.4391    6.6439   21.0235 C   0  0  0  0  0  0  0  0  0  0  0  0
    9.6494   11.1353   20.4167 C   0  0  0  0  0  0  0  0  0  0  0  0
    8.1431    7.6829   21.9046 C   0  0  0  0  0  0  0  0  0  0  0  0
    7.7796   10.1314   21.5115 N   0  0  0  0  0  0  0  0  0  0  0  0
    9.2768    5.6183   21.4437 C   0  0  0  0  0  0  0  0  0  0  0  0
    8.6315    7.7322   23.1768 C   0  0  0  0  0  0  0  0  0  0  0  0
   13.0537    9.9821   20.5781 C   0  0  0  0  0  0  0  0  0  0  0  0
   10.3850    4.6575   23.2386 O   0  0  0  0  0  0  0  0  0  0  0  0
    4.2069    6.8450   20.7994 C   0  0  0  0  0  0  0  0  0  0  0  0
    3.0726   10.1043   19.8522 O   0  0  0  0  0  0  0  0  0  0  0  0
    5.5057    7.1196   21.1155 C   0  0  0  0  0  0  0  0  0  0  0  0
    7.0367   11.0229   21.9948 O   0  0  0  0  0  0  0  0  0  0  0  0
  1  8  4  0
  1 12  4  0
  2  9  1  0
  2 11  4  0
  2 25  4  0
  3 12  4  0
  3 14  1  0
  3 23  4  0
  4 13  4  0
  4 21  4  0
  4 24  1  0
  5  8  4  0
  5 23  4  0
  6 18  2  0
  7 15  4  0
  7 16  1  0
  7 27  4  0
  8 18  1  0
 10 18  1  0
 10 20  1  0
 11 15  4  0
 11 26  1  0
 13 22  4  0
 16 19  1  0
 16 20  2  0
 17 19  4  0
 17 21  4  0
 19 22  4  0
 20 28  1  0
 25 27  4  0
M  END
$$$$

 Created by Python create_sdf_string function

 28 30  0  0  0  0  0  0  0  0999 V2000
   11.4592   11.2893   18.7941 C   0  0  0  0  0  0  0  0  0  0  0  0
    3.4202    7.9009   20.3866 C   0  0  0  0  0  0  0  0  0  0  0  0
   13.5280   10.3522   19.3586 C   0  0  0  0  0  0  0  0  0  0  0  0
    9.6923    5.6468   22.7891 C   0  0  0  0  0  0  0  0  0  0  0  0
   11.7756   10.2554   20.8841 N   0  0  0  0  0  0  0  0  0  0  0  0
    8.9876   11.9370   19.8757 O   0  0  0  0  0  0  0  0  0  0  0  0
    6.0167    8.4478   21.1089 C   0  0  0  0  0  0  0  0  0  0  0  0
   11.0002   10.8890   20.0262 C   0  0  0  0  0  0  0  0  0  0  0  0
    2.1721    7.7393   20.0315 O   0  0  0  0  0  0  0  0  0  0  0  0
    9.1107   10.3880   21.3769 N   0  0  0  0  0  0  0  0  0  0  0  0
    3.9102    9.2008   20.3124 C   0  0  0  0  0  0  0  0  0  0  0  0
   12.7292   10.9960   18.4597 C   0  0  0  0  0  0  0  0  0  0  0  0
    9.3798    6.6793   23.6625 C   0  0  0  0  0  0  0  0  0  0  0  0
   14.7425   10.0739   19.0802 O   0  0  0  0  0  0  0  0  0  0  0  0
    5.1894    9.4673   20.7118 C   0  0  0  0  0  0  0  0  0  0  0  0
    7.3773    8.8224   21.4870 C   0  0  0  0  0  0  0  0  0  0  0  0
    8.4391    6.6439   21.0235 C   0  0  0  0  0  0  0  0  0  0  0  0
    9.6494   11.1353   20.4167 C   0  0  0  0  0  0  0  0  0  0  0  0
    8.1431    7.6829   21.9046 C   0  0  0  0  0  0  0  0  0  0  0  0
    7.7796   10.1314   21.5115 N   0  0  0  0  0  0  0  0  0  0  0  0
    9.2768    5.6183   21.4437 C   0  0  0  0  0  0  0  0  0  0  0  0
    8.6315    7.7322   23.1768 C   0  0  0  0  0  0  0  0  0  0  0  0
   13.0537    9.9821   20.5781 C   0  0  0  0  0  0  0  0  0  0  0  0
   10.3850    4.6575   23.2386 O   0  0  0  0  0  0  0  0  0  0  0  0
    4.2069    6.8450   20.7994 C   0  0  0  0  0  0  0  0  0  0  0  0
    3.0726   10.1043   19.8522 O   0  0  0  0  0  0  0  0  0  0  0  0
    5.5057    7.1196   21.1155 C   0  0  0  0  0  0  0  0  0  0  0  0
    7.0367   11.0229   21.9948 O   0  0  0  0  0  0  0  0  0  0  0  0
  1  8  4  0
  1 12  4  0
  2  9  1  0
  2 11  4  0
  2 25  4  0
  3 12  4  0
  3 14  1  0
  3 23  4  0
  4 13  4  0
  4 21  4  0
  4 24  1  0
  5  8  4  0
  5 23  4  0
  6 18  2  0
  7 15  4  0
  7 16  1  0
  7 27  4  0
  8 18  1  0
 10 18  1  0
 10 20  1  0
 11 15  4  0
 11 26  1  0
 13 22  4  0
 16 19  1  0
 16 20  2  0
 17 19  4  0
 17 21  4  0
 19 22  4  0
 20 28  1  0
 25 27  4  0
M  END
$$$$

 Created by Python create_sdf_string function

 28 30  0  0  0  0  0  0  0  0999 V2000
   11.4592   11.2893   18.7941 C   0  0  0  0  0  0  0  0  0  0  0  0
    3.4202    7.9009   20.3866 C   0  0  0  0  0  0  0  0  0  0  0  0
   13.5280   10.3522   19.3586 C   0  0  0  0  0  0  0  0  0  0  0  0
    9.6923    5.6468   22.7891 C   0  0  0  0  0  0  0  0  0  0  0  0
   11.7756   10.2554   20.8841 N   0  0  0  0  0  0  0  0  0  0  0  0
    8.9876   11.9370   19.8757 O   0  0  0  0  0  0  0  0  0  0  0  0
    6.0167    8.4478   21.1089 C   0  0  0  0  0  0  0  0  0  0  0  0
   11.0002   10.8890   20.0262 C   0  0  0  0  0  0  0  0  0  0  0  0
    2.1721    7.7393   20.0315 O   0  0  0  0  0  0  0  0  0  0  0  0
    9.1107   10.3880   21.3769 N   0  0  0  0  0  0  0  0  0  0  0  0
    3.9102    9.2008   20.3124 C   0  0  0  0  0  0  0  0  0  0  0  0
   12.7292   10.9960   18.4597 C   0  0  0  0  0  0  0  0  0  0  0  0
    9.3798    6.6793   23.6625 C   0  0  0  0  0  0  0  0  0  0  0  0
   14.7425   10.0739   19.0802 O   0  0  0  0  0  0  0  0  0  0  0  0
    5.1894    9.4673   20.7118 C   0  0  0  0  0  0  0  0  0  0  0  0
    7.3773    8.8224   21.4870 C   0  0  0  0  0  0  0  0  0  0  0  0
    8.4391    6.6439   21.0235 C   0  0  0  0  0  0  0  0  0  0  0  0
    9.6494   11.1353   20.4167 C   0  0  0  0  0  0  0  0  0  0  0  0
    8.1431    7.6829   21.9046 C   0  0  0  0  0  0  0  0  0  0  0  0
    7.7796   10.1314   21.5115 N   0  0  0  0  0  0  0  0  0  0  0  0
    9.2768    5.6183   21.4437 C   0  0  0  0  0  0  0  0  0  0  0  0
    8.6315    7.7322   23.1768 C   0  0  0  0  0  0  0  0  0  0  0  0
   13.0537    9.9821   20.5781 C   0  0  0  0  0  0  0  0  0  0  0  0
   10.3850    4.6575   23.2386 O   0  0  0  0  0  0  0  0  0  0  0  0
    4.2069    6.8450   20.7994 C   0  0  0  0  0  0  0  0  0  0  0  0
    3.0726   10.1043   19.8522 O   0  0  0  0  0  0  0  0  0  0  0  0
    5.5057    7.1196   21.1155 C   0  0  0  0  0  0  0  0  0  0  0  0
    7.0367   11.0229   21.9948 O   0  0  0  0  0  0  0  0  0  0  0  0
  1  8  4  0
  1 12  4  0
  2  9  1  0
  2 11  4  0
  2 25  4  0
  3 12  4  0
  3 14  1  0
  3 23  4  0
  4 13  4  0
  4 21  4  0
  4 24  1  0
  5  8  4  0
  5 23  4  0
  6 18  2  0
  7 15  4  0
  7 16  1  0
  7 27  4  0
  8 18  1  0
 10 18  1  0
 10 20  1  0
 11 15  4  0
 11 26  1  0
 13 22  4  0
 16 19  1  0
 16 20  2  0
 17 19  4  0
 17 21  4  0
 19 22  4  0
 20 28  1  0
 25 27  4  0
M  END
$$$$

 Created by Python create_sdf_string function

 28 30  0  0  0  0  0  0  0  0999 V2000
   11.4592   11.2893   18.7941 C   0  0  0  0  0  0  0  0  0  0  0  0
    3.4202    7.9009   20.3866 C   0  0  0  0  0  0  0  0  0  0  0  0
   13.5280   10.3522   19.3586 C   0  0  0  0  0  0  0  0  0  0  0  0
    9.6923    5.6468   22.7891 C   0  0  0  0  0  0  0  0  0  0  0  0
   11.7756   10.2554   20.8841 N   0  0  0  0  0  0  0  0  0  0  0  0
    8.9876   11.9370   19.8757 O   0  0  0  0  0  0  0  0  0  0  0  0
    6.0167    8.4478   21.1089 C   0  0  0  0  0  0  0  0  0  0  0  0
   11.0002   10.8890   20.0262 C   0  0  0  0  0  0  0  0  0  0  0  0
    2.1721    7.7393   20.0315 O   0  0  0  0  0  0  0  0  0  0  0  0
    9.1107   10.3880   21.3769 N   0  0  0  0  0  0  0  0  0  0  0  0
    3.9102    9.2008   20.3124 C   0  0  0  0  0  0  0  0  0  0  0  0
   12.7292   10.9960   18.4597 C   0  0  0  0  0  0  0  0  0  0  0  0
    9.3798    6.6793   23.6625 C   0  0  0  0  0  0  0  0  0  0  0  0
   14.7425   10.0739   19.0802 O   0  0  0  0  0  0  0  0  0  0  0  0
    5.1894    9.4673   20.7118 C   0  0  0  0  0  0  0  0  0  0  0  0
    7.3773    8.8224   21.4870 C   0  0  0  0  0  0  0  0  0  0  0  0
    8.4391    6.6439   21.0235 C   0  0  0  0  0  0  0  0  0  0  0  0
    9.6494   11.1353   20.4167 C   0  0  0  0  0  0  0  0  0  0  0  0
    8.1431    7.6829   21.9046 C   0  0  0  0  0  0  0  0  0  0  0  0
    7.7796   10.1314   21.5115 N   0  0  0  0  0  0  0  0  0  0  0  0
    9.2768    5.6183   21.4437 C   0  0  0  0  0  0  0  0  0  0  0  0
    8.6315    7.7322   23.1768 C   0  0  0  0  0  0  0  0  0  0  0  0
   13.0537    9.9821   20.5781 C   0  0  0  0  0  0  0  0  0  0  0  0
   10.3850    4.6575   23.2386 O   0  0  0  0  0  0  0  0  0  0  0  0
    4.2069    6.8450   20.7994 C   0  0  0  0  0  0  0  0  0  0  0  0
    3.0726   10.1043   19.8522 O   0  0  0  0  0  0  0  0  0  0  0  0
    5.5057    7.1196   21.1155 C   0  0  0  0  0  0  0  0  0  0  0  0
    7.0367   11.0229   21.9948 O   0  0  0  0  0  0  0  0  0  0  0  0
  1  8  4  0
  1 12  4  0
  2  9  1  0
  2 11  4  0
  2 25  4  0
  3 12  4  0
  3 14  1  0
  3 23  4  0
  4 13  4  0
  4 21  4  0
  4 24  1  0
  5  8  4  0
  5 23  4  0
  6 18  2  0
  7 15  4  0
  7 16  1  0
  7 27  4  0
  8 18  1  0
 10 18  1  0
 10 20  1  0
 11 15  4  0
 11 26  1  0
 13 22  4  0
 16 19  1  0
 16 20  2  0
 17 19  4  0
 17 21  4  0
 19 22  4  0
 20 28  1  0
 25 27  4  0
M  END
$$$$

 Created by Python create_sdf_string function

 28 30  0  0  0  0  0  0  0  0999 V2000
   11.4592   11.2893   18.7941 C   0  0  0  0  0  0  0  0  0  0  0  0
    3.4202    7.9009   20.3866 C   0  0  0  0  0  0  0  0  0  0  0  0
   13.5280   10.3522   19.3586 C   0  0  0  0  0  0  0  0  0  0  0  0
    9.6923    5.6468   22.7891 C   0  0  0  0  0  0  0  0  0  0  0  0
   11.7756   10.2554   20.8841 N   0  0  0  0  0  0  0  0  0  0  0  0
    8.9876   11.9370   19.8757 O   0  0  0  0  0  0  0  0  0  0  0  0
    6.0167    8.4478   21.1089 C   0  0  0  0  0  0  0  0  0  0  0  0
   11.0002   10.8890   20.0262 C   0  0  0  0  0  0  0  0  0  0  0  0
    2.1721    7.7393   20.0315 O   0  0  0  0  0  0  0  0  0  0  0  0
    9.1107   10.3880   21.3769 N   0  0  0  0  0  0  0  0  0  0  0  0
    3.9102    9.2008   20.3124 C   0  0  0  0  0  0  0  0  0  0  0  0
   12.7292   10.9960   18.4597 C   0  0  0  0  0  0  0  0  0  0  0  0
    9.3798    6.6793   23.6625 C   0  0  0  0  0  0  0  0  0  0  0  0
   14.7425   10.0739   19.0802 O   0  0  0  0  0  0  0  0  0  0  0  0
    5.1894    9.4673   20.7118 C   0  0  0  0  0  0  0  0  0  0  0  0
    7.3773    8.8224   21.4870 C   0  0  0  0  0  0  0  0  0  0  0  0
    8.4391    6.6439   21.0235 C   0  0  0  0  0  0  0  0  0  0  0  0
    9.6494   11.1353   20.4167 C   0  0  0  0  0  0  0  0  0  0  0  0
    8.1431    7.6829   21.9046 C   0  0  0  0  0  0  0  0  0  0  0  0
    7.7796   10.1314   21.5115 N   0  0  0  0  0  0  0  0  0  0  0  0
    9.2768    5.6183   21.4437 C   0  0  0  0  0  0  0  0  0  0  0  0
    8.6315    7.7322   23.1768 C   0  0  0  0  0  0  0  0  0  0  0  0
   13.0537    9.9821   20.5781 C   0  0  0  0  0  0  0  0  0  0  0  0
   10.3850    4.6575   23.2386 O   0  0  0  0  0  0  0  0  0  0  0  0
    4.2069    6.8450   20.7994 C   0  0  0  0  0  0  0  0  0  0  0  0
    3.0726   10.1043   19.8522 O   0  0  0  0  0  0  0  0  0  0  0  0
    5.5057    7.1196   21.1155 C   0  0  0  0  0  0  0  0  0  0  0  0
    7.0367   11.0229   21.9948 O   0  0  0  0  0  0  0  0  0  0  0  0
  1  8  4  0
  1 12  4  0
  2  9  1  0
  2 11  4  0
  2 25  4  0
  3 12  4  0
  3 14  1  0
  3 23  4  0
  4 13  4  0
  4 21  4  0
  4 24  1  0
  5  8  4  0
  5 23  4  0
  6 18  2  0
  7 15  4  0
  7 16  1  0
  7 27  4  0
  8 18  1  0
 10 18  1  0
 10 20  1  0
 11 15  4  0
 11 26  1  0
 13 22  4  0
 16 19  1  0
 16 20  2  0
 17 19  4  0
 17 21  4  0
 19 22  4  0
 20 28  1  0
 25 27  4  0
M  END
$$$$

 Created by Python create_sdf_string function

 28 30  0  0  0  0  0  0  0  0999 V2000
   11.4592   11.2893   18.7941 C   0  0  0  0  0  0  0  0  0  0  0  0
    3.4202    7.9009   20.3866 C   0  0  0  0  0  0  0  0  0  0  0  0
   13.5280   10.3522   19.3586 C   0  0  0  0  0  0  0  0  0  0  0  0
    9.6923    5.6468   22.7891 C   0  0  0  0  0  0  0  0  0  0  0  0
   11.7756   10.2554   20.8841 N   0  0  0  0  0  0  0  0  0  0  0  0
    8.9876   11.9370   19.8757 O   0  0  0  0  0  0  0  0  0  0  0  0
    6.0167    8.4478   21.1089 C   0  0  0  0  0  0  0  0  0  0  0  0
   11.0002   10.8890   20.0262 C   0  0  0  0  0  0  0  0  0  0  0  0
    2.1721    7.7393   20.0315 O   0  0  0  0  0  0  0  0  0  0  0  0
    9.1107   10.3880   21.3769 N   0  0  0  0  0  0  0  0  0  0  0  0
    3.9102    9.2008   20.3124 C   0  0  0  0  0  0  0  0  0  0  0  0
   12.7292   10.9960   18.4597 C   0  0  0  0  0  0  0  0  0  0  0  0
    9.3798    6.6793   23.6625 C   0  0  0  0  0  0  0  0  0  0  0  0
   14.7425   10.0739   19.0802 O   0  0  0  0  0  0  0  0  0  0  0  0
    5.1894    9.4673   20.7118 C   0  0  0  0  0  0  0  0  0  0  0  0
    7.3773    8.8224   21.4870 C   0  0  0  0  0  0  0  0  0  0  0  0
    8.4391    6.6439   21.0235 C   0  0  0  0  0  0  0  0  0  0  0  0
    9.6494   11.1353   20.4167 C   0  0  0  0  0  0  0  0  0  0  0  0
    8.1431    7.6829   21.9046 C   0  0  0  0  0  0  0  0  0  0  0  0
    7.7796   10.1314   21.5115 N   0  0  0  0  0  0  0  0  0  0  0  0
    9.2768    5.6183   21.4437 C   0  0  0  0  0  0  0  0  0  0  0  0
    8.6315    7.7322   23.1768 C   0  0  0  0  0  0  0  0  0  0  0  0
   13.0537    9.9821   20.5781 C   0  0  0  0  0  0  0  0  0  0  0  0
   10.3850    4.6575   23.2386 O   0  0  0  0  0  0  0  0  0  0  0  0
    4.2069    6.8450   20.7994 C   0  0  0  0  0  0  0  0  0  0  0  0
    3.0726   10.1043   19.8522 O   0  0  0  0  0  0  0  0  0  0  0  0
    5.5057    7.1196   21.1155 C   0  0  0  0  0  0  0  0  0  0  0  0
    7.0367   11.0229   21.9948 O   0  0  0  0  0  0  0  0  0  0  0  0
  1  8  4  0
  1 12  4  0
  2  9  1  0
  2 11  4  0
  2 25  4  0
  3 12  4  0
  3 14  1  0
  3 23  4  0
  4 13  4  0
  4 21  4  0
  4 24  1  0
  5  8  4  0
  5 23  4  0
  6 18  2  0
  7 15  4  0
  7 16  1  0
  7 27  4  0
  8 18  1  0
 10 18  1  0
 10 20  1  0
 11 15  4  0
 11 26  1  0
 13 22  4  0
 16 19  1  0
 16 20  2  0
 17 19  4  0
 17 21  4  0
 19 22  4  0
 20 28  1  0
 25 27  4  0
M  END
$$$$

 Created by Python create_sdf_string function

 28 30  0  0  0  0  0  0  0  0999 V2000
   11.4592   11.2893   18.7941 C   0  0  0  0  0  0  0  0  0  0  0  0
    3.4202    7.9009   20.3866 C   0  0  0  0  0  0  0  0  0  0  0  0
   13.5280   10.3522   19.3586 C   0  0  0  0  0  0  0  0  0  0  0  0
    9.6923    5.6468   22.7891 C   0  0  0  0  0  0  0  0  0  0  0  0
   11.7756   10.2554   20.8841 N   0  0  0  0  0  0  0  0  0  0  0  0
    8.9876   11.9370   19.8757 O   0  0  0  0  0  0  0  0  0  0  0  0
    6.0167    8.4478   21.1089 C   0  0  0  0  0  0  0  0  0  0  0  0
   11.0002   10.8890   20.0262 C   0  0  0  0  0  0  0  0  0  0  0  0
    2.1721    7.7393   20.0315 O   0  0  0  0  0  0  0  0  0  0  0  0
    9.1107   10.3880   21.3769 N   0  0  0  0  0  0  0  0  0  0  0  0
    3.9102    9.2008   20.3124 C   0  0  0  0  0  0  0  0  0  0  0  0
   12.7292   10.9960   18.4597 C   0  0  0  0  0  0  0  0  0  0  0  0
    9.3798    6.6793   23.6625 C   0  0  0  0  0  0  0  0  0  0  0  0
   14.7425   10.0739   19.0802 O   0  0  0  0  0  0  0  0  0  0  0  0
    5.1894    9.4673   20.7118 C   0  0  0  0  0  0  0  0  0  0  0  0
    7.3773    8.8224   21.4870 C   0  0  0  0  0  0  0  0  0  0  0  0
    8.4391    6.6439   21.0235 C   0  0  0  0  0  0  0  0  0  0  0  0
    9.6494   11.1353   20.4167 C   0  0  0  0  0  0  0  0  0  0  0  0
    8.1431    7.6829   21.9046 C   0  0  0  0  0  0  0  0  0  0  0  0
    7.7796   10.1314   21.5115 N   0  0  0  0  0  0  0  0  0  0  0  0
    9.2768    5.6183   21.4437 C   0  0  0  0  0  0  0  0  0  0  0  0
    8.6315    7.7322   23.1768 C   0  0  0  0  0  0  0  0  0  0  0  0
   13.0537    9.9821   20.5781 C   0  0  0  0  0  0  0  0  0  0  0  0
   10.3850    4.6575   23.2386 O   0  0  0  0  0  0  0  0  0  0  0  0
    4.2069    6.8450   20.7994 C   0  0  0  0  0  0  0  0  0  0  0  0
    3.0726   10.1043   19.8522 O   0  0  0  0  0  0  0  0  0  0  0  0
    5.5057    7.1196   21.1155 C   0  0  0  0  0  0  0  0  0  0  0  0
    7.0367   11.0229   21.9948 O   0  0  0  0  0  0  0  0  0  0  0  0
  1  8  4  0
  1 12  4  0
  2  9  1  0
  2 11  4  0
  2 25  4  0
  3 12  4  0
  3 14  1  0
  3 23  4  0
  4 13  4  0
  4 21  4  0
  4 24  1  0
  5  8  4  0
  5 23  4  0
  6 18  2  0
  7 15  4  0
  7 16  1  0
  7 27  4  0
  8 18  1  0
 10 18  1  0
 10 20  1  0
 11 15  4  0
 11 26  1  0
 13 22  4  0
 16 19  1  0
 16 20  2  0
 17 19  4  0
 17 21  4  0
 19 22  4  0
 20 28  1  0
 25 27  4  0
M  END
$$$$

 Created by Python create_sdf_string function

 28 30  0  0  0  0  0  0  0  0999 V2000
   11.4592   11.2893   18.7941 C   0  0  0  0  0  0  0  0  0  0  0  0
    3.4202    7.9009   20.3866 C   0  0  0  0  0  0  0  0  0  0  0  0
   13.5280   10.3522   19.3586 C   0  0  0  0  0  0  0  0  0  0  0  0
    9.6923    5.6468   22.7891 C   0  0  0  0  0  0  0  0  0  0  0  0
   11.7756   10.2554   20.8841 N   0  0  0  0  0  0  0  0  0  0  0  0
    8.9876   11.9370   19.8757 O   0  0  0  0  0  0  0  0  0  0  0  0
    6.0167    8.4478   21.1089 C   0  0  0  0  0  0  0  0  0  0  0  0
   11.0002   10.8890   20.0262 C   0  0  0  0  0  0  0  0  0  0  0  0
    2.1721    7.7393   20.0315 O   0  0  0  0  0  0  0  0  0  0  0  0
    9.1107   10.3880   21.3769 N   0  0  0  0  0  0  0  0  0  0  0  0
    3.9102    9.2008   20.3124 C   0  0  0  0  0  0  0  0  0  0  0  0
   12.7292   10.9960   18.4597 C   0  0  0  0  0  0  0  0  0  0  0  0
    9.3798    6.6793   23.6625 C   0  0  0  0  0  0  0  0  0  0  0  0
   14.7425   10.0739   19.0802 O   0  0  0  0  0  0  0  0  0  0  0  0
    5.1894    9.4673   20.7118 C   0  0  0  0  0  0  0  0  0  0  0  0
    7.3773    8.8224   21.4870 C   0  0  0  0  0  0  0  0  0  0  0  0
    8.4391    6.6439   21.0235 C   0  0  0  0  0  0  0  0  0  0  0  0
    9.6494   11.1353   20.4167 C   0  0  0  0  0  0  0  0  0  0  0  0
    8.1431    7.6829   21.9046 C   0  0  0  0  0  0  0  0  0  0  0  0
    7.7796   10.1314   21.5115 N   0  0  0  0  0  0  0  0  0  0  0  0
    9.2768    5.6183   21.4437 C   0  0  0  0  0  0  0  0  0  0  0  0
    8.6315    7.7322   23.1768 C   0  0  0  0  0  0  0  0  0  0  0  0
   13.0537    9.9821   20.5781 C   0  0  0  0  0  0  0  0  0  0  0  0
   10.3850    4.6575   23.2386 O   0  0  0  0  0  0  0  0  0  0  0  0
    4.2069    6.8450   20.7994 C   0  0  0  0  0  0  0  0  0  0  0  0
    3.0726   10.1043   19.8522 O   0  0  0  0  0  0  0  0  0  0  0  0
    5.5057    7.1196   21.1155 C   0  0  0  0  0  0  0  0  0  0  0  0
    7.0367   11.0229   21.9948 O   0  0  0  0  0  0  0  0  0  0  0  0
  1  8  4  0
  1 12  4  0
  2  9  1  0
  2 11  4  0
  2 25  4  0
  3 12  4  0
  3 14  1  0
  3 23  4  0
  4 13  4  0
  4 21  4  0
  4 24  1  0
  5  8  4  0
  5 23  4  0
  6 18  2  0
  7 15  4  0
  7 16  1  0
  7 27  4  0
  8 18  1  0
 10 18  1  0
 10 20  1  0
 11 15  4  0
 11 26  1  0
 13 22  4  0
 16 19  1  0
 16 20  2  0
 17 19  4  0
 17 21  4  0
 19 22  4  0
 20 28  1  0
 25 27  4  0
M  END
$$$$

 Created by Python create_sdf_string function

 28 30  0  0  0  0  0  0  0  0999 V2000
   11.4592   11.2893   18.7941 C   0  0  0  0  0  0  0  0  0  0  0  0
    3.4202    7.9009   20.3866 C   0  0  0  0  0  0  0  0  0  0  0  0
   13.5280   10.3522   19.3586 C   0  0  0  0  0  0  0  0  0  0  0  0
    9.6923    5.6468   22.7891 C   0  0  0  0  0  0  0  0  0  0  0  0
   11.7756   10.2554   20.8841 N   0  0  0  0  0  0  0  0  0  0  0  0
    8.9876   11.9370   19.8757 O   0  0  0  0  0  0  0  0  0  0  0  0
    6.0167    8.4478   21.1089 C   0  0  0  0  0  0  0  0  0  0  0  0
   11.0002   10.8890   20.0262 C   0  0  0  0  0  0  0  0  0  0  0  0
    2.1721    7.7393   20.0315 O   0  0  0  0  0  0  0  0  0  0  0  0
    9.1107   10.3880   21.3769 N   0  0  0  0  0  0  0  0  0  0  0  0
    3.9102    9.2008   20.3124 C   0  0  0  0  0  0  0  0  0  0  0  0
   12.7292   10.9960   18.4597 C   0  0  0  0  0  0  0  0  0  0  0  0
    9.3798    6.6793   23.6625 C   0  0  0  0  0  0  0  0  0  0  0  0
   14.7425   10.0739   19.0802 O   0  0  0  0  0  0  0  0  0  0  0  0
    5.1894    9.4673   20.7118 C   0  0  0  0  0  0  0  0  0  0  0  0
    7.3773    8.8224   21.4870 C   0  0  0  0  0  0  0  0  0  0  0  0
    8.4391    6.6439   21.0235 C   0  0  0  0  0  0  0  0  0  0  0  0
    9.6494   11.1353   20.4167 C   0  0  0  0  0  0  0  0  0  0  0  0
    8.1431    7.6829   21.9046 C   0  0  0  0  0  0  0  0  0  0  0  0
    7.7796   10.1314   21.5115 N   0  0  0  0  0  0  0  0  0  0  0  0
    9.2768    5.6183   21.4437 C   0  0  0  0  0  0  0  0  0  0  0  0
    8.6315    7.7322   23.1768 C   0  0  0  0  0  0  0  0  0  0  0  0
   13.0537    9.9821   20.5781 C   0  0  0  0  0  0  0  0  0  0  0  0
   10.3850    4.6575   23.2386 O   0  0  0  0  0  0  0  0  0  0  0  0
    4.2069    6.8450   20.7994 C   0  0  0  0  0  0  0  0  0  0  0  0
    3.0726   10.1043   19.8522 O   0  0  0  0  0  0  0  0  0  0  0  0
    5.5057    7.1196   21.1155 C   0  0  0  0  0  0  0  0  0  0  0  0
    7.0367   11.0229   21.9948 O   0  0  0  0  0  0  0  0  0  0  0  0
  1  8  4  0
  1 12  4  0
  2  9  1  0
  2 11  4  0
  2 25  4  0
  3 12  4  0
  3 14  1  0
  3 23  4  0
  4 13  4  0
  4 21  4  0
  4 24  1  0
  5  8  4  0
  5 23  4  0
  6 18  2  0
  7 15  4  0
  7 16  1  0
  7 27  4  0
  8 18  1  0
 10 18  1  0
 10 20  1  0
 11 15  4  0
 11 26  1  0
 13 22  4  0
 16 19  1  0
 16 20  2  0
 17 19  4  0
 17 21  4  0
 19 22  4  0
 20 28  1  0
 25 27  4  0
M  END
$$$$

 Created by Python create_sdf_string function

 28 30  0  0  0  0  0  0  0  0999 V2000
   11.4592   11.2893   18.7941 C   0  0  0  0  0  0  0  0  0  0  0  0
    3.4202    7.9009   20.3866 C   0  0  0  0  0  0  0  0  0  0  0  0
   13.5280   10.3522   19.3586 C   0  0  0  0  0  0  0  0  0  0  0  0
    9.6923    5.6468   22.7891 C   0  0  0  0  0  0  0  0  0  0  0  0
   11.7756   10.2554   20.8841 N   0  0  0  0  0  0  0  0  0  0  0  0
    8.9876   11.9370   19.8757 O   0  0  0  0  0  0  0  0  0  0  0  0
    6.0167    8.4478   21.1089 C   0  0  0  0  0  0  0  0  0  0  0  0
   11.0002   10.8890   20.0262 C   0  0  0  0  0  0  0  0  0  0  0  0
    2.1721    7.7393   20.0315 O   0  0  0  0  0  0  0  0  0  0  0  0
    9.1107   10.3880   21.3769 N   0  0  0  0  0  0  0  0  0  0  0  0
    3.9102    9.2008   20.3124 C   0  0  0  0  0  0  0  0  0  0  0  0
   12.7292   10.9960   18.4597 C   0  0  0  0  0  0  0  0  0  0  0  0
    9.3798    6.6793   23.6625 C   0  0  0  0  0  0  0  0  0  0  0  0
   14.7425   10.0739   19.0802 O   0  0  0  0  0  0  0  0  0  0  0  0
    5.1894    9.4673   20.7118 C   0  0  0  0  0  0  0  0  0  0  0  0
    7.3773    8.8224   21.4870 C   0  0  0  0  0  0  0  0  0  0  0  0
    8.4391    6.6439   21.0235 C   0  0  0  0  0  0  0  0  0  0  0  0
    9.6494   11.1353   20.4167 C   0  0  0  0  0  0  0  0  0  0  0  0
    8.1431    7.6829   21.9046 C   0  0  0  0  0  0  0  0  0  0  0  0
    7.7796   10.1314   21.5115 N   0  0  0  0  0  0  0  0  0  0  0  0
    9.2768    5.6183   21.4437 C   0  0  0  0  0  0  0  0  0  0  0  0
    8.6315    7.7322   23.1768 C   0  0  0  0  0  0  0  0  0  0  0  0
   13.0537    9.9821   20.5781 C   0  0  0  0  0  0  0  0  0  0  0  0
   10.3850    4.6575   23.2386 O   0  0  0  0  0  0  0  0  0  0  0  0
    4.2069    6.8450   20.7994 C   0  0  0  0  0  0  0  0  0  0  0  0
    3.0726   10.1043   19.8522 O   0  0  0  0  0  0  0  0  0  0  0  0
    5.5057    7.1196   21.1155 C   0  0  0  0  0  0  0  0  0  0  0  0
    7.0367   11.0229   21.9948 O   0  0  0  0  0  0  0  0  0  0  0  0
  1  8  4  0
  1 12  4  0
  2  9  1  0
  2 11  4  0
  2 25  4  0
  3 12  4  0
  3 14  1  0
  3 23  4  0
  4 13  4  0
  4 21  4  0
  4 24  1  0
  5  8  4  0
  5 23  4  0
  6 18  2  0
  7 15  4  0
  7 16  1  0
  7 27  4  0
  8 18  1  0
 10 18  1  0
 10 20  1  0
 11 15  4  0
 11 26  1  0
 13 22  4  0
 16 19  1  0
 16 20  2  0
 17 19  4  0
 17 21  4  0
 19 22  4  0
 20 28  1  0
 25 27  4  0
M  END
$$$$

 Created by Python create_sdf_string function

 28 30  0  0  0  0  0  0  0  0999 V2000
   11.4592   11.2893   18.7941 C   0  0  0  0  0  0  0  0  0  0  0  0
    3.4202    7.9009   20.3866 C   0  0  0  0  0  0  0  0  0  0  0  0
   13.5280   10.3522   19.3586 C   0  0  0  0  0  0  0  0  0  0  0  0
    9.6923    5.6468   22.7891 C   0  0  0  0  0  0  0  0  0  0  0  0
   11.7756   10.2554   20.8841 N   0  0  0  0  0  0  0  0  0  0  0  0
    8.9876   11.9370   19.8757 O   0  0  0  0  0  0  0  0  0  0  0  0
    6.0167    8.4478   21.1089 C   0  0  0  0  0  0  0  0  0  0  0  0
   11.0002   10.8890   20.0262 C   0  0  0  0  0  0  0  0  0  0  0  0
    2.1721    7.7393   20.0315 O   0  0  0  0  0  0  0  0  0  0  0  0
    9.1107   10.3880   21.3769 N   0  0  0  0  0  0  0  0  0  0  0  0
    3.9102    9.2008   20.3124 C   0  0  0  0  0  0  0  0  0  0  0  0
   12.7292   10.9960   18.4597 C   0  0  0  0  0  0  0  0  0  0  0  0
    9.3798    6.6793   23.6625 C   0  0  0  0  0  0  0  0  0  0  0  0
   14.7425   10.0739   19.0802 O   0  0  0  0  0  0  0  0  0  0  0  0
    5.1894    9.4673   20.7118 C   0  0  0  0  0  0  0  0  0  0  0  0
    7.3773    8.8224   21.4870 C   0  0  0  0  0  0  0  0  0  0  0  0
    8.4391    6.6439   21.0235 C   0  0  0  0  0  0  0  0  0  0  0  0
    9.6494   11.1353   20.4167 C   0  0  0  0  0  0  0  0  0  0  0  0
    8.1431    7.6829   21.9046 C   0  0  0  0  0  0  0  0  0  0  0  0
    7.7796   10.1314   21.5115 N   0  0  0  0  0  0  0  0  0  0  0  0
    9.2768    5.6183   21.4437 C   0  0  0  0  0  0  0  0  0  0  0  0
    8.6315    7.7322   23.1768 C   0  0  0  0  0  0  0  0  0  0  0  0
   13.0537    9.9821   20.5781 C   0  0  0  0  0  0  0  0  0  0  0  0
   10.3850    4.6575   23.2386 O   0  0  0  0  0  0  0  0  0  0  0  0
    4.2069    6.8450   20.7994 C   0  0  0  0  0  0  0  0  0  0  0  0
    3.0726   10.1043   19.8522 O   0  0  0  0  0  0  0  0  0  0  0  0
    5.5057    7.1196   21.1155 C   0  0  0  0  0  0  0  0  0  0  0  0
    7.0367   11.0229   21.9948 O   0  0  0  0  0  0  0  0  0  0  0  0
  1  8  4  0
  1 12  4  0
  2  9  1  0
  2 11  4  0
  2 25  4  0
  3 12  4  0
  3 14  1  0
  3 23  4  0
  4 13  4  0
  4 21  4  0
  4 24  1  0
  5  8  4  0
  5 23  4  0
  6 18  2  0
  7 15  4  0
  7 16  1  0
  7 27  4  0
  8 18  1  0
 10 18  1  0
 10 20  1  0
 11 15  4  0
 11 26  1  0
 13 22  4  0
 16 19  1  0
 16 20  2  0
 17 19  4  0
 17 21  4  0
 19 22  4  0
 20 28  1  0
 25 27  4  0
M  END
$$$$

 Created by Python create_sdf_string function

 28 30  0  0  0  0  0  0  0  0999 V2000
   11.4592   11.2893   18.7941 C   0  0  0  0  0  0  0  0  0  0  0  0
    3.4202    7.9009   20.3866 C   0  0  0  0  0  0  0  0  0  0  0  0
   13.5280   10.3522   19.3586 C   0  0  0  0  0  0  0  0  0  0  0  0
    9.6923    5.6468   22.7891 C   0  0  0  0  0  0  0  0  0  0  0  0
   11.7756   10.2554   20.8841 N   0  0  0  0  0  0  0  0  0  0  0  0
    8.9876   11.9370   19.8757 O   0  0  0  0  0  0  0  0  0  0  0  0
    6.0167    8.4478   21.1089 C   0  0  0  0  0  0  0  0  0  0  0  0
   11.0002   10.8890   20.0262 C   0  0  0  0  0  0  0  0  0  0  0  0
    2.1721    7.7393   20.0315 O   0  0  0  0  0  0  0  0  0  0  0  0
    9.1107   10.3880   21.3769 N   0  0  0  0  0  0  0  0  0  0  0  0
    3.9102    9.2008   20.3124 C   0  0  0  0  0  0  0  0  0  0  0  0
   12.7292   10.9960   18.4597 C   0  0  0  0  0  0  0  0  0  0  0  0
    9.3798    6.6793   23.6625 C   0  0  0  0  0  0  0  0  0  0  0  0
   14.7425   10.0739   19.0802 O   0  0  0  0  0  0  0  0  0  0  0  0
    5.1894    9.4673   20.7118 C   0  0  0  0  0  0  0  0  0  0  0  0
    7.3773    8.8224   21.4870 C   0  0  0  0  0  0  0  0  0  0  0  0
    8.4391    6.6439   21.0235 C   0  0  0  0  0  0  0  0  0  0  0  0
    9.6494   11.1353   20.4167 C   0  0  0  0  0  0  0  0  0  0  0  0
    8.1431    7.6829   21.9046 C   0  0  0  0  0  0  0  0  0  0  0  0
    7.7796   10.1314   21.5115 N   0  0  0  0  0  0  0  0  0  0  0  0
    9.2768    5.6183   21.4437 C   0  0  0  0  0  0  0  0  0  0  0  0
    8.6315    7.7322   23.1768 C   0  0  0  0  0  0  0  0  0  0  0  0
   13.0537    9.9821   20.5781 C   0  0  0  0  0  0  0  0  0  0  0  0
   10.3850    4.6575   23.2386 O   0  0  0  0  0  0  0  0  0  0  0  0
    4.2069    6.8450   20.7994 C   0  0  0  0  0  0  0  0  0  0  0  0
    3.0726   10.1043   19.8522 O   0  0  0  0  0  0  0  0  0  0  0  0
    5.5057    7.1196   21.1155 C   0  0  0  0  0  0  0  0  0  0  0  0
    7.0367   11.0229   21.9948 O   0  0  0  0  0  0  0  0  0  0  0  0
  1  8  4  0
  1 12  4  0
  2  9  1  0
  2 11  4  0
  2 25  4  0
  3 12  4  0
  3 14  1  0
  3 23  4  0
  4 13  4  0
  4 21  4  0
  4 24  1  0
  5  8  4  0
  5 23  4  0
  6 18  2  0
  7 15  4  0
  7 16  1  0
  7 27  4  0
  8 18  1  0
 10 18  1  0
 10 20  1  0
 11 15  4  0
 11 26  1  0
 13 22  4  0
 16 19  1  0
 16 20  2  0
 17 19  4  0
 17 21  4  0
 19 22  4  0
 20 28  1  0
 25 27  4  0
M  END
$$$$

 Created by Python create_sdf_string function

 28 30  0  0  0  0  0  0  0  0999 V2000
   11.4592   11.2893   18.7941 C   0  0  0  0  0  0  0  0  0  0  0  0
    3.4202    7.9009   20.3866 C   0  0  0  0  0  0  0  0  0  0  0  0
   13.5280   10.3522   19.3586 C   0  0  0  0  0  0  0  0  0  0  0  0
    9.6923    5.6468   22.7891 C   0  0  0  0  0  0  0  0  0  0  0  0
   11.7756   10.2554   20.8841 N   0  0  0  0  0  0  0  0  0  0  0  0
    8.9876   11.9370   19.8757 O   0  0  0  0  0  0  0  0  0  0  0  0
    6.0167    8.4478   21.1089 C   0  0  0  0  0  0  0  0  0  0  0  0
   11.0002   10.8890   20.0262 C   0  0  0  0  0  0  0  0  0  0  0  0
    2.1721    7.7393   20.0315 O   0  0  0  0  0  0  0  0  0  0  0  0
    9.1107   10.3880   21.3769 N   0  0  0  0  0  0  0  0  0  0  0  0
    3.9102    9.2008   20.3124 C   0  0  0  0  0  0  0  0  0  0  0  0
   12.7292   10.9960   18.4597 C   0  0  0  0  0  0  0  0  0  0  0  0
    9.3798    6.6793   23.6625 C   0  0  0  0  0  0  0  0  0  0  0  0
   14.7425   10.0739   19.0802 O   0  0  0  0  0  0  0  0  0  0  0  0
    5.1894    9.4673   20.7118 C   0  0  0  0  0  0  0  0  0  0  0  0
    7.3773    8.8224   21.4870 C   0  0  0  0  0  0  0  0  0  0  0  0
    8.4391    6.6439   21.0235 C   0  0  0  0  0  0  0  0  0  0  0  0
    9.6494   11.1353   20.4167 C   0  0  0  0  0  0  0  0  0  0  0  0
    8.1431    7.6829   21.9046 C   0  0  0  0  0  0  0  0  0  0  0  0
    7.7796   10.1314   21.5115 N   0  0  0  0  0  0  0  0  0  0  0  0
    9.2768    5.6183   21.4437 C   0  0  0  0  0  0  0  0  0  0  0  0
    8.6315    7.7322   23.1768 C   0  0  0  0  0  0  0  0  0  0  0  0
   13.0537    9.9821   20.5781 C   0  0  0  0  0  0  0  0  0  0  0  0
   10.3850    4.6575   23.2386 O   0  0  0  0  0  0  0  0  0  0  0  0
    4.2069    6.8450   20.7994 C   0  0  0  0  0  0  0  0  0  0  0  0
    3.0726   10.1043   19.8522 O   0  0  0  0  0  0  0  0  0  0  0  0
    5.5057    7.1196   21.1155 C   0  0  0  0  0  0  0  0  0  0  0  0
    7.0367   11.0229   21.9948 O   0  0  0  0  0  0  0  0  0  0  0  0
  1  8  4  0
  1 12  4  0
  2  9  1  0
  2 11  4  0
  2 25  4  0
  3 12  4  0
  3 14  1  0
  3 23  4  0
  4 13  4  0
  4 21  4  0
  4 24  1  0
  5  8  4  0
  5 23  4  0
  6 18  2  0
  7 15  4  0
  7 16  1  0
  7 27  4  0
  8 18  1  0
 10 18  1  0
 10 20  1  0
 11 15  4  0
 11 26  1  0
 13 22  4  0
 16 19  1  0
 16 20  2  0
 17 19  4  0
 17 21  4  0
 19 22  4  0
 20 28  1  0
 25 27  4  0
M  END
$$$$

 Created by Python create_sdf_string function

 28 30  0  0  0  0  0  0  0  0999 V2000
   11.4592   11.2893   18.7941 C   0  0  0  0  0  0  0  0  0  0  0  0
    3.4202    7.9009   20.3866 C   0  0  0  0  0  0  0  0  0  0  0  0
   13.5280   10.3522   19.3586 C   0  0  0  0  0  0  0  0  0  0  0  0
    9.6923    5.6468   22.7891 C   0  0  0  0  0  0  0  0  0  0  0  0
   11.7756   10.2554   20.8841 N   0  0  0  0  0  0  0  0  0  0  0  0
    8.9876   11.9370   19.8757 O   0  0  0  0  0  0  0  0  0  0  0  0
    6.0167    8.4478   21.1089 C   0  0  0  0  0  0  0  0  0  0  0  0
   11.0002   10.8890   20.0262 C   0  0  0  0  0  0  0  0  0  0  0  0
    2.1721    7.7393   20.0315 O   0  0  0  0  0  0  0  0  0  0  0  0
    9.1107   10.3880   21.3769 N   0  0  0  0  0  0  0  0  0  0  0  0
    3.9102    9.2008   20.3124 C   0  0  0  0  0  0  0  0  0  0  0  0
   12.7292   10.9960   18.4597 C   0  0  0  0  0  0  0  0  0  0  0  0
    9.3798    6.6793   23.6625 C   0  0  0  0  0  0  0  0  0  0  0  0
   14.7425   10.0739   19.0802 O   0  0  0  0  0  0  0  0  0  0  0  0
    5.1894    9.4673   20.7118 C   0  0  0  0  0  0  0  0  0  0  0  0
    7.3773    8.8224   21.4870 C   0  0  0  0  0  0  0  0  0  0  0  0
    8.4391    6.6439   21.0235 C   0  0  0  0  0  0  0  0  0  0  0  0
    9.6494   11.1353   20.4167 C   0  0  0  0  0  0  0  0  0  0  0  0
    8.1431    7.6829   21.9046 C   0  0  0  0  0  0  0  0  0  0  0  0
    7.7796   10.1314   21.5115 N   0  0  0  0  0  0  0  0  0  0  0  0
    9.2768    5.6183   21.4437 C   0  0  0  0  0  0  0  0  0  0  0  0
    8.6315    7.7322   23.1768 C   0  0  0  0  0  0  0  0  0  0  0  0
   13.0537    9.9821   20.5781 C   0  0  0  0  0  0  0  0  0  0  0  0
   10.3850    4.6575   23.2386 O   0  0  0  0  0  0  0  0  0  0  0  0
    4.2069    6.8450   20.7994 C   0  0  0  0  0  0  0  0  0  0  0  0
    3.0726   10.1043   19.8522 O   0  0  0  0  0  0  0  0  0  0  0  0
    5.5057    7.1196   21.1155 C   0  0  0  0  0  0  0  0  0  0  0  0
    7.0367   11.0229   21.9948 O   0  0  0  0  0  0  0  0  0  0  0  0
  1  8  4  0
  1 12  4  0
  2  9  1  0
  2 11  4  0
  2 25  4  0
  3 12  4  0
  3 14  1  0
  3 23  4  0
  4 13  4  0
  4 21  4  0
  4 24  1  0
  5  8  4  0
  5 23  4  0
  6 18  2  0
  7 15  4  0
  7 16  1  0
  7 27  4  0
  8 18  1  0
 10 18  1  0
 10 20  1  0
 11 15  4  0
 11 26  1  0
 13 22  4  0
 16 19  1  0
 16 20  2  0
 17 19  4  0
 17 21  4  0
 19 22  4  0
 20 28  1  0
 25 27  4  0
M  END
$$$$

 Created by Python create_sdf_string function

 28 30  0  0  0  0  0  0  0  0999 V2000
   11.4592   11.2893   18.7941 C   0  0  0  0  0  0  0  0  0  0  0  0
    3.4202    7.9009   20.3866 C   0  0  0  0  0  0  0  0  0  0  0  0
   13.5280   10.3522   19.3586 C   0  0  0  0  0  0  0  0  0  0  0  0
    9.6923    5.6468   22.7891 C   0  0  0  0  0  0  0  0  0  0  0  0
   11.7756   10.2554   20.8841 N   0  0  0  0  0  0  0  0  0  0  0  0
    8.9876   11.9370   19.8757 O   0  0  0  0  0  0  0  0  0  0  0  0
    6.0167    8.4478   21.1089 C   0  0  0  0  0  0  0  0  0  0  0  0
   11.0002   10.8890   20.0262 C   0  0  0  0  0  0  0  0  0  0  0  0
    2.1721    7.7393   20.0315 O   0  0  0  0  0  0  0  0  0  0  0  0
    9.1107   10.3880   21.3769 N   0  0  0  0  0  0  0  0  0  0  0  0
    3.9102    9.2008   20.3124 C   0  0  0  0  0  0  0  0  0  0  0  0
   12.7292   10.9960   18.4597 C   0  0  0  0  0  0  0  0  0  0  0  0
    9.3798    6.6793   23.6625 C   0  0  0  0  0  0  0  0  0  0  0  0
   14.7425   10.0739   19.0802 O   0  0  0  0  0  0  0  0  0  0  0  0
    5.1894    9.4673   20.7118 C   0  0  0  0  0  0  0  0  0  0  0  0
    7.3773    8.8224   21.4870 C   0  0  0  0  0  0  0  0  0  0  0  0
    8.4391    6.6439   21.0235 C   0  0  0  0  0  0  0  0  0  0  0  0
    9.6494   11.1353   20.4167 C   0  0  0  0  0  0  0  0  0  0  0  0
    8.1431    7.6829   21.9046 C   0  0  0  0  0  0  0  0  0  0  0  0
    7.7796   10.1314   21.5115 N   0  0  0  0  0  0  0  0  0  0  0  0
    9.2768    5.6183   21.4437 C   0  0  0  0  0  0  0  0  0  0  0  0
    8.6315    7.7322   23.1768 C   0  0  0  0  0  0  0  0  0  0  0  0
   13.0537    9.9821   20.5781 C   0  0  0  0  0  0  0  0  0  0  0  0
   10.3850    4.6575   23.2386 O   0  0  0  0  0  0  0  0  0  0  0  0
    4.2069    6.8450   20.7994 C   0  0  0  0  0  0  0  0  0  0  0  0
    3.0726   10.1043   19.8522 O   0  0  0  0  0  0  0  0  0  0  0  0
    5.5057    7.1196   21.1155 C   0  0  0  0  0  0  0  0  0  0  0  0
    7.0367   11.0229   21.9948 O   0  0  0  0  0  0  0  0  0  0  0  0
  1  8  4  0
  1 12  4  0
  2  9  1  0
  2 11  4  0
  2 25  4  0
  3 12  4  0
  3 14  1  0
  3 23  4  0
  4 13  4  0
  4 21  4  0
  4 24  1  0
  5  8  4  0
  5 23  4  0
  6 18  2  0
  7 15  4  0
  7 16  1  0
  7 27  4  0
  8 18  1  0
 10 18  1  0
 10 20  1  0
 11 15  4  0
 11 26  1  0
 13 22  4  0
 16 19  1  0
 16 20  2  0
 17 19  4  0
 17 21  4  0
 19 22  4  0
 20 28  1  0
 25 27  4  0
M  END
$$$$

 Created by Python create_sdf_string function

 28 30  0  0  0  0  0  0  0  0999 V2000
   11.4592   11.2893   18.7941 C   0  0  0  0  0  0  0  0  0  0  0  0
    3.4202    7.9009   20.3866 C   0  0  0  0  0  0  0  0  0  0  0  0
   13.5280   10.3522   19.3586 C   0  0  0  0  0  0  0  0  0  0  0  0
    9.6923    5.6468   22.7891 C   0  0  0  0  0  0  0  0  0  0  0  0
   11.7756   10.2554   20.8841 N   0  0  0  0  0  0  0  0  0  0  0  0
    8.9876   11.9370   19.8757 O   0  0  0  0  0  0  0  0  0  0  0  0
    6.0167    8.4478   21.1089 C   0  0  0  0  0  0  0  0  0  0  0  0
   11.0002   10.8890   20.0262 C   0  0  0  0  0  0  0  0  0  0  0  0
    2.1721    7.7393   20.0315 O   0  0  0  0  0  0  0  0  0  0  0  0
    9.1107   10.3880   21.3769 N   0  0  0  0  0  0  0  0  0  0  0  0
    3.9102    9.2008   20.3124 C   0  0  0  0  0  0  0  0  0  0  0  0
   12.7292   10.9960   18.4597 C   0  0  0  0  0  0  0  0  0  0  0  0
    9.3798    6.6793   23.6625 C   0  0  0  0  0  0  0  0  0  0  0  0
   14.7425   10.0739   19.0802 O   0  0  0  0  0  0  0  0  0  0  0  0
    5.1894    9.4673   20.7118 C   0  0  0  0  0  0  0  0  0  0  0  0
    7.3773    8.8224   21.4870 C   0  0  0  0  0  0  0  0  0  0  0  0
    8.4391    6.6439   21.0235 C   0  0  0  0  0  0  0  0  0  0  0  0
    9.6494   11.1353   20.4167 C   0  0  0  0  0  0  0  0  0  0  0  0
    8.1431    7.6829   21.9046 C   0  0  0  0  0  0  0  0  0  0  0  0
    7.7796   10.1314   21.5115 N   0  0  0  0  0  0  0  0  0  0  0  0
    9.2768    5.6183   21.4437 C   0  0  0  0  0  0  0  0  0  0  0  0
    8.6315    7.7322   23.1768 C   0  0  0  0  0  0  0  0  0  0  0  0
   13.0537    9.9821   20.5781 C   0  0  0  0  0  0  0  0  0  0  0  0
   10.3850    4.6575   23.2386 O   0  0  0  0  0  0  0  0  0  0  0  0
    4.2069    6.8450   20.7994 C   0  0  0  0  0  0  0  0  0  0  0  0
    3.0726   10.1043   19.8522 O   0  0  0  0  0  0  0  0  0  0  0  0
    5.5057    7.1196   21.1155 C   0  0  0  0  0  0  0  0  0  0  0  0
    7.0367   11.0229   21.9948 O   0  0  0  0  0  0  0  0  0  0  0  0
  1  8  4  0
  1 12  4  0
  2  9  1  0
  2 11  4  0
  2 25  4  0
  3 12  4  0
  3 14  1  0
  3 23  4  0
  4 13  4  0
  4 21  4  0
  4 24  1  0
  5  8  4  0
  5 23  4  0
  6 18  2  0
  7 15  4  0
  7 16  1  0
  7 27  4  0
  8 18  1  0
 10 18  1  0
 10 20  1  0
 11 15  4  0
 11 26  1  0
 13 22  4  0
 16 19  1  0
 16 20  2  0
 17 19  4  0
 17 21  4  0
 19 22  4  0
 20 28  1  0
 25 27  4  0
M  END
$$$$

 Created by Python create_sdf_string function

 28 30  0  0  0  0  0  0  0  0999 V2000
   11.4592   11.2893   18.7941 C   0  0  0  0  0  0  0  0  0  0  0  0
    3.4202    7.9009   20.3866 C   0  0  0  0  0  0  0  0  0  0  0  0
   13.5280   10.3522   19.3586 C   0  0  0  0  0  0  0  0  0  0  0  0
    9.6923    5.6468   22.7891 C   0  0  0  0  0  0  0  0  0  0  0  0
   11.7756   10.2554   20.8841 N   0  0  0  0  0  0  0  0  0  0  0  0
    8.9876   11.9370   19.8757 O   0  0  0  0  0  0  0  0  0  0  0  0
    6.0167    8.4478   21.1089 C   0  0  0  0  0  0  0  0  0  0  0  0
   11.0002   10.8890   20.0262 C   0  0  0  0  0  0  0  0  0  0  0  0
    2.1721    7.7393   20.0315 O   0  0  0  0  0  0  0  0  0  0  0  0
    9.1107   10.3880   21.3769 N   0  0  0  0  0  0  0  0  0  0  0  0
    3.9102    9.2008   20.3124 C   0  0  0  0  0  0  0  0  0  0  0  0
   12.7292   10.9960   18.4597 C   0  0  0  0  0  0  0  0  0  0  0  0
    9.3798    6.6793   23.6625 C   0  0  0  0  0  0  0  0  0  0  0  0
   14.7425   10.0739   19.0802 O   0  0  0  0  0  0  0  0  0  0  0  0
    5.1894    9.4673   20.7118 C   0  0  0  0  0  0  0  0  0  0  0  0
    7.3773    8.8224   21.4870 C   0  0  0  0  0  0  0  0  0  0  0  0
    8.4391    6.6439   21.0235 C   0  0  0  0  0  0  0  0  0  0  0  0
    9.6494   11.1353   20.4167 C   0  0  0  0  0  0  0  0  0  0  0  0
    8.1431    7.6829   21.9046 C   0  0  0  0  0  0  0  0  0  0  0  0
    7.7796   10.1314   21.5115 N   0  0  0  0  0  0  0  0  0  0  0  0
    9.2768    5.6183   21.4437 C   0  0  0  0  0  0  0  0  0  0  0  0
    8.6315    7.7322   23.1768 C   0  0  0  0  0  0  0  0  0  0  0  0
   13.0537    9.9821   20.5781 C   0  0  0  0  0  0  0  0  0  0  0  0
   10.3850    4.6575   23.2386 O   0  0  0  0  0  0  0  0  0  0  0  0
    4.2069    6.8450   20.7994 C   0  0  0  0  0  0  0  0  0  0  0  0
    3.0726   10.1043   19.8522 O   0  0  0  0  0  0  0  0  0  0  0  0
    5.5057    7.1196   21.1155 C   0  0  0  0  0  0  0  0  0  0  0  0
    7.0367   11.0229   21.9948 O   0  0  0  0  0  0  0  0  0  0  0  0
  1  8  4  0
  1 12  4  0
  2  9  1  0
  2 11  4  0
  2 25  4  0
  3 12  4  0
  3 14  1  0
  3 23  4  0
  4 13  4  0
  4 21  4  0
  4 24  1  0
  5  8  4  0
  5 23  4  0
  6 18  2  0
  7 15  4  0
  7 16  1  0
  7 27  4  0
  8 18  1  0
 10 18  1  0
 10 20  1  0
 11 15  4  0
 11 26  1  0
 13 22  4  0
 16 19  1  0
 16 20  2  0
 17 19  4  0
 17 21  4  0
 19 22  4  0
 20 28  1  0
 25 27  4  0
M  END
$$$$

 Created by Python create_sdf_string function

 28 30  0  0  0  0  0  0  0  0999 V2000
   11.4592   11.2893   18.7941 C   0  0  0  0  0  0  0  0  0  0  0  0
    3.4202    7.9009   20.3866 C   0  0  0  0  0  0  0  0  0  0  0  0
   13.5280   10.3522   19.3586 C   0  0  0  0  0  0  0  0  0  0  0  0
    9.6923    5.6468   22.7891 C   0  0  0  0  0  0  0  0  0  0  0  0
   11.7756   10.2554   20.8841 N   0  0  0  0  0  0  0  0  0  0  0  0
    8.9876   11.9370   19.8757 O   0  0  0  0  0  0  0  0  0  0  0  0
    6.0167    8.4478   21.1089 C   0  0  0  0  0  0  0  0  0  0  0  0
   11.0002   10.8890   20.0262 C   0  0  0  0  0  0  0  0  0  0  0  0
    2.1721    7.7393   20.0315 O   0  0  0  0  0  0  0  0  0  0  0  0
    9.1107   10.3880   21.3769 N   0  0  0  0  0  0  0  0  0  0  0  0
    3.9102    9.2008   20.3124 C   0  0  0  0  0  0  0  0  0  0  0  0
   12.7292   10.9960   18.4597 C   0  0  0  0  0  0  0  0  0  0  0  0
    9.3798    6.6793   23.6625 C   0  0  0  0  0  0  0  0  0  0  0  0
   14.7425   10.0739   19.0802 O   0  0  0  0  0  0  0  0  0  0  0  0
    5.1894    9.4673   20.7118 C   0  0  0  0  0  0  0  0  0  0  0  0
    7.3773    8.8224   21.4870 C   0  0  0  0  0  0  0  0  0  0  0  0
    8.4391    6.6439   21.0235 C   0  0  0  0  0  0  0  0  0  0  0  0
    9.6494   11.1353   20.4167 C   0  0  0  0  0  0  0  0  0  0  0  0
    8.1431    7.6829   21.9046 C   0  0  0  0  0  0  0  0  0  0  0  0
    7.7796   10.1314   21.5115 N   0  0  0  0  0  0  0  0  0  0  0  0
    9.2768    5.6183   21.4437 C   0  0  0  0  0  0  0  0  0  0  0  0
    8.6315    7.7322   23.1768 C   0  0  0  0  0  0  0  0  0  0  0  0
   13.0537    9.9821   20.5781 C   0  0  0  0  0  0  0  0  0  0  0  0
   10.3850    4.6575   23.2386 O   0  0  0  0  0  0  0  0  0  0  0  0
    4.2069    6.8450   20.7994 C   0  0  0  0  0  0  0  0  0  0  0  0
    3.0726   10.1043   19.8522 O   0  0  0  0  0  0  0  0  0  0  0  0
    5.5057    7.1196   21.1155 C   0  0  0  0  0  0  0  0  0  0  0  0
    7.0367   11.0229   21.9948 O   0  0  0  0  0  0  0  0  0  0  0  0
  1  8  4  0
  1 12  4  0
  2  9  1  0
  2 11  4  0
  2 25  4  0
  3 12  4  0
  3 14  1  0
  3 23  4  0
  4 13  4  0
  4 21  4  0
  4 24  1  0
  5  8  4  0
  5 23  4  0
  6 18  2  0
  7 15  4  0
  7 16  1  0
  7 27  4  0
  8 18  1  0
 10 18  1  0
 10 20  1  0
 11 15  4  0
 11 26  1  0
 13 22  4  0
 16 19  1  0
 16 20  2  0
 17 19  4  0
 17 21  4  0
 19 22  4  0
 20 28  1  0
 25 27  4  0
M  END
$$$$

 Created by Python create_sdf_string function

 28 30  0  0  0  0  0  0  0  0999 V2000
   11.4592   11.2893   18.7941 C   0  0  0  0  0  0  0  0  0  0  0  0
    3.4202    7.9009   20.3866 C   0  0  0  0  0  0  0  0  0  0  0  0
   13.5280   10.3522   19.3586 C   0  0  0  0  0  0  0  0  0  0  0  0
    9.6923    5.6468   22.7891 C   0  0  0  0  0  0  0  0  0  0  0  0
   11.7756   10.2554   20.8841 N   0  0  0  0  0  0  0  0  0  0  0  0
    8.9876   11.9370   19.8757 O   0  0  0  0  0  0  0  0  0  0  0  0
    6.0167    8.4478   21.1089 C   0  0  0  0  0  0  0  0  0  0  0  0
   11.0002   10.8890   20.0262 C   0  0  0  0  0  0  0  0  0  0  0  0
    2.1721    7.7393   20.0315 O   0  0  0  0  0  0  0  0  0  0  0  0
    9.1107   10.3880   21.3769 N   0  0  0  0  0  0  0  0  0  0  0  0
    3.9102    9.2008   20.3124 C   0  0  0  0  0  0  0  0  0  0  0  0
   12.7292   10.9960   18.4597 C   0  0  0  0  0  0  0  0  0  0  0  0
    9.3798    6.6793   23.6625 C   0  0  0  0  0  0  0  0  0  0  0  0
   14.7425   10.0739   19.0802 O   0  0  0  0  0  0  0  0  0  0  0  0
    5.1894    9.4673   20.7118 C   0  0  0  0  0  0  0  0  0  0  0  0
    7.3773    8.8224   21.4870 C   0  0  0  0  0  0  0  0  0  0  0  0
    8.4391    6.6439   21.0235 C   0  0  0  0  0  0  0  0  0  0  0  0
    9.6494   11.1353   20.4167 C   0  0  0  0  0  0  0  0  0  0  0  0
    8.1431    7.6829   21.9046 C   0  0  0  0  0  0  0  0  0  0  0  0
    7.7796   10.1314   21.5115 N   0  0  0  0  0  0  0  0  0  0  0  0
    9.2768    5.6183   21.4437 C   0  0  0  0  0  0  0  0  0  0  0  0
    8.6315    7.7322   23.1768 C   0  0  0  0  0  0  0  0  0  0  0  0
   13.0537    9.9821   20.5781 C   0  0  0  0  0  0  0  0  0  0  0  0
   10.3850    4.6575   23.2386 O   0  0  0  0  0  0  0  0  0  0  0  0
    4.2069    6.8450   20.7994 C   0  0  0  0  0  0  0  0  0  0  0  0
    3.0726   10.1043   19.8522 O   0  0  0  0  0  0  0  0  0  0  0  0
    5.5057    7.1196   21.1155 C   0  0  0  0  0  0  0  0  0  0  0  0
    7.0367   11.0229   21.9948 O   0  0  0  0  0  0  0  0  0  0  0  0
  1  8  4  0
  1 12  4  0
  2  9  1  0
  2 11  4  0
  2 25  4  0
  3 12  4  0
  3 14  1  0
  3 23  4  0
  4 13  4  0
  4 21  4  0
  4 24  1  0
  5  8  4  0
  5 23  4  0
  6 18  2  0
  7 15  4  0
  7 16  1  0
  7 27  4  0
  8 18  1  0
 10 18  1  0
 10 20  1  0
 11 15  4  0
 11 26  1  0
 13 22  4  0
 16 19  1  0
 16 20  2  0
 17 19  4  0
 17 21  4  0
 19 22  4  0
 20 28  1  0
 25 27  4  0
M  END
$$$$

 Created by Python create_sdf_string function

 28 30  0  0  0  0  0  0  0  0999 V2000
   11.4592   11.2893   18.7941 C   0  0  0  0  0  0  0  0  0  0  0  0
    3.4202    7.9009   20.3866 C   0  0  0  0  0  0  0  0  0  0  0  0
   13.5280   10.3522   19.3586 C   0  0  0  0  0  0  0  0  0  0  0  0
    9.6923    5.6468   22.7891 C   0  0  0  0  0  0  0  0  0  0  0  0
   11.7756   10.2554   20.8841 N   0  0  0  0  0  0  0  0  0  0  0  0
    8.9876   11.9370   19.8757 O   0  0  0  0  0  0  0  0  0  0  0  0
    6.0167    8.4478   21.1089 C   0  0  0  0  0  0  0  0  0  0  0  0
   11.0002   10.8890   20.0262 C   0  0  0  0  0  0  0  0  0  0  0  0
    2.1721    7.7393   20.0315 O   0  0  0  0  0  0  0  0  0  0  0  0
    9.1107   10.3880   21.3769 N   0  0  0  0  0  0  0  0  0  0  0  0
    3.9102    9.2008   20.3124 C   0  0  0  0  0  0  0  0  0  0  0  0
   12.7292   10.9960   18.4597 C   0  0  0  0  0  0  0  0  0  0  0  0
    9.3798    6.6793   23.6625 C   0  0  0  0  0  0  0  0  0  0  0  0
   14.7425   10.0739   19.0802 O   0  0  0  0  0  0  0  0  0  0  0  0
    5.1894    9.4673   20.7118 C   0  0  0  0  0  0  0  0  0  0  0  0
    7.3773    8.8224   21.4870 C   0  0  0  0  0  0  0  0  0  0  0  0
    8.4391    6.6439   21.0235 C   0  0  0  0  0  0  0  0  0  0  0  0
    9.6494   11.1353   20.4167 C   0  0  0  0  0  0  0  0  0  0  0  0
    8.1431    7.6829   21.9046 C   0  0  0  0  0  0  0  0  0  0  0  0
    7.7796   10.1314   21.5115 N   0  0  0  0  0  0  0  0  0  0  0  0
    9.2768    5.6183   21.4437 C   0  0  0  0  0  0  0  0  0  0  0  0
    8.6315    7.7322   23.1768 C   0  0  0  0  0  0  0  0  0  0  0  0
   13.0537    9.9821   20.5781 C   0  0  0  0  0  0  0  0  0  0  0  0
   10.3850    4.6575   23.2386 O   0  0  0  0  0  0  0  0  0  0  0  0
    4.2069    6.8450   20.7994 C   0  0  0  0  0  0  0  0  0  0  0  0
    3.0726   10.1043   19.8522 O   0  0  0  0  0  0  0  0  0  0  0  0
    5.5057    7.1196   21.1155 C   0  0  0  0  0  0  0  0  0  0  0  0
    7.0367   11.0229   21.9948 O   0  0  0  0  0  0  0  0  0  0  0  0
  1  8  4  0
  1 12  4  0
  2  9  1  0
  2 11  4  0
  2 25  4  0
  3 12  4  0
  3 14  1  0
  3 23  4  0
  4 13  4  0
  4 21  4  0
  4 24  1  0
  5  8  4  0
  5 23  4  0
  6 18  2  0
  7 15  4  0
  7 16  1  0
  7 27  4  0
  8 18  1  0
 10 18  1  0
 10 20  1  0
 11 15  4  0
 11 26  1  0
 13 22  4  0
 16 19  1  0
 16 20  2  0
 17 19  4  0
 17 21  4  0
 19 22  4  0
 20 28  1  0
 25 27  4  0
M  END
$$$$

 Created by Python create_sdf_string function

 28 30  0  0  0  0  0  0  0  0999 V2000
   11.4592   11.2893   18.7941 C   0  0  0  0  0  0  0  0  0  0  0  0
    3.4202    7.9009   20.3866 C   0  0  0  0  0  0  0  0  0  0  0  0
   13.5280   10.3522   19.3586 C   0  0  0  0  0  0  0  0  0  0  0  0
    9.6923    5.6468   22.7891 C   0  0  0  0  0  0  0  0  0  0  0  0
   11.7756   10.2554   20.8841 N   0  0  0  0  0  0  0  0  0  0  0  0
    8.9876   11.9370   19.8757 O   0  0  0  0  0  0  0  0  0  0  0  0
    6.0167    8.4478   21.1089 C   0  0  0  0  0  0  0  0  0  0  0  0
   11.0002   10.8890   20.0262 C   0  0  0  0  0  0  0  0  0  0  0  0
    2.1721    7.7393   20.0315 O   0  0  0  0  0  0  0  0  0  0  0  0
    9.1107   10.3880   21.3769 N   0  0  0  0  0  0  0  0  0  0  0  0
    3.9102    9.2008   20.3124 C   0  0  0  0  0  0  0  0  0  0  0  0
   12.7292   10.9960   18.4597 C   0  0  0  0  0  0  0  0  0  0  0  0
    9.3798    6.6793   23.6625 C   0  0  0  0  0  0  0  0  0  0  0  0
   14.7425   10.0739   19.0802 O   0  0  0  0  0  0  0  0  0  0  0  0
    5.1894    9.4673   20.7118 C   0  0  0  0  0  0  0  0  0  0  0  0
    7.3773    8.8224   21.4870 C   0  0  0  0  0  0  0  0  0  0  0  0
    8.4391    6.6439   21.0235 C   0  0  0  0  0  0  0  0  0  0  0  0
    9.6494   11.1353   20.4167 C   0  0  0  0  0  0  0  0  0  0  0  0
    8.1431    7.6829   21.9046 C   0  0  0  0  0  0  0  0  0  0  0  0
    7.7796   10.1314   21.5115 N   0  0  0  0  0  0  0  0  0  0  0  0
    9.2768    5.6183   21.4437 C   0  0  0  0  0  0  0  0  0  0  0  0
    8.6315    7.7322   23.1768 C   0  0  0  0  0  0  0  0  0  0  0  0
   13.0537    9.9821   20.5781 C   0  0  0  0  0  0  0  0  0  0  0  0
   10.3850    4.6575   23.2386 O   0  0  0  0  0  0  0  0  0  0  0  0
    4.2069    6.8450   20.7994 C   0  0  0  0  0  0  0  0  0  0  0  0
    3.0726   10.1043   19.8522 O   0  0  0  0  0  0  0  0  0  0  0  0
    5.5057    7.1196   21.1155 C   0  0  0  0  0  0  0  0  0  0  0  0
    7.0367   11.0229   21.9948 O   0  0  0  0  0  0  0  0  0  0  0  0
  1  8  4  0
  1 12  4  0
  2  9  1  0
  2 11  4  0
  2 25  4  0
  3 12  4  0
  3 14  1  0
  3 23  4  0
  4 13  4  0
  4 21  4  0
  4 24  1  0
  5  8  4  0
  5 23  4  0
  6 18  2  0
  7 15  4  0
  7 16  1  0
  7 27  4  0
  8 18  1  0
 10 18  1  0
 10 20  1  0
 11 15  4  0
 11 26  1  0
 13 22  4  0
 16 19  1  0
 16 20  2  0
 17 19  4  0
 17 21  4  0
 19 22  4  0
 20 28  1  0
 25 27  4  0
M  END
$$$$

 Created by Python create_sdf_string function

 28 30  0  0  0  0  0  0  0  0999 V2000
   11.4592   11.2893   18.7941 C   0  0  0  0  0  0  0  0  0  0  0  0
    3.4202    7.9009   20.3866 C   0  0  0  0  0  0  0  0  0  0  0  0
   13.5280   10.3522   19.3586 C   0  0  0  0  0  0  0  0  0  0  0  0
    9.6923    5.6468   22.7891 C   0  0  0  0  0  0  0  0  0  0  0  0
   11.7756   10.2554   20.8841 N   0  0  0  0  0  0  0  0  0  0  0  0
    8.9876   11.9370   19.8757 O   0  0  0  0  0  0  0  0  0  0  0  0
    6.0167    8.4478   21.1089 C   0  0  0  0  0  0  0  0  0  0  0  0
   11.0002   10.8890   20.0262 C   0  0  0  0  0  0  0  0  0  0  0  0
    2.1721    7.7393   20.0315 O   0  0  0  0  0  0  0  0  0  0  0  0
    9.1107   10.3880   21.3769 N   0  0  0  0  0  0  0  0  0  0  0  0
    3.9102    9.2008   20.3124 C   0  0  0  0  0  0  0  0  0  0  0  0
   12.7292   10.9960   18.4597 C   0  0  0  0  0  0  0  0  0  0  0  0
    9.3798    6.6793   23.6625 C   0  0  0  0  0  0  0  0  0  0  0  0
   14.7425   10.0739   19.0802 O   0  0  0  0  0  0  0  0  0  0  0  0
    5.1894    9.4673   20.7118 C   0  0  0  0  0  0  0  0  0  0  0  0
    7.3773    8.8224   21.4870 C   0  0  0  0  0  0  0  0  0  0  0  0
    8.4391    6.6439   21.0235 C   0  0  0  0  0  0  0  0  0  0  0  0
    9.6494   11.1353   20.4167 C   0  0  0  0  0  0  0  0  0  0  0  0
    8.1431    7.6829   21.9046 C   0  0  0  0  0  0  0  0  0  0  0  0
    7.7796   10.1314   21.5115 N   0  0  0  0  0  0  0  0  0  0  0  0
    9.2768    5.6183   21.4437 C   0  0  0  0  0  0  0  0  0  0  0  0
    8.6315    7.7322   23.1768 C   0  0  0  0  0  0  0  0  0  0  0  0
   13.0537    9.9821   20.5781 C   0  0  0  0  0  0  0  0  0  0  0  0
   10.3850    4.6575   23.2386 O   0  0  0  0  0  0  0  0  0  0  0  0
    4.2069    6.8450   20.7994 C   0  0  0  0  0  0  0  0  0  0  0  0
    3.0726   10.1043   19.8522 O   0  0  0  0  0  0  0  0  0  0  0  0
    5.5057    7.1196   21.1155 C   0  0  0  0  0  0  0  0  0  0  0  0
    7.0367   11.0229   21.9948 O   0  0  0  0  0  0  0  0  0  0  0  0
  1  8  4  0
  1 12  4  0
  2  9  1  0
  2 11  4  0
  2 25  4  0
  3 12  4  0
  3 14  1  0
  3 23  4  0
  4 13  4  0
  4 21  4  0
  4 24  1  0
  5  8  4  0
  5 23  4  0
  6 18  2  0
  7 15  4  0
  7 16  1  0
  7 27  4  0
  8 18  1  0
 10 18  1  0
 10 20  1  0
 11 15  4  0
 11 26  1  0
 13 22  4  0
 16 19  1  0
 16 20  2  0
 17 19  4  0
 17 21  4  0
 19 22  4  0
 20 28  1  0
 25 27  4  0
M  END
$$$$

 Created by Python create_sdf_string function

 28 30  0  0  0  0  0  0  0  0999 V2000
   11.4592   11.2893   18.7941 C   0  0  0  0  0  0  0  0  0  0  0  0
    3.4202    7.9009   20.3866 C   0  0  0  0  0  0  0  0  0  0  0  0
   13.5280   10.3522   19.3586 C   0  0  0  0  0  0  0  0  0  0  0  0
    9.6923    5.6468   22.7891 C   0  0  0  0  0  0  0  0  0  0  0  0
   11.7756   10.2554   20.8841 N   0  0  0  0  0  0  0  0  0  0  0  0
    8.9876   11.9370   19.8757 O   0  0  0  0  0  0  0  0  0  0  0  0
    6.0167    8.4478   21.1089 C   0  0  0  0  0  0  0  0  0  0  0  0
   11.0002   10.8890   20.0262 C   0  0  0  0  0  0  0  0  0  0  0  0
    2.1721    7.7393   20.0315 O   0  0  0  0  0  0  0  0  0  0  0  0
    9.1107   10.3880   21.3769 N   0  0  0  0  0  0  0  0  0  0  0  0
    3.9102    9.2008   20.3124 C   0  0  0  0  0  0  0  0  0  0  0  0
   12.7292   10.9960   18.4597 C   0  0  0  0  0  0  0  0  0  0  0  0
    9.3798    6.6793   23.6625 C   0  0  0  0  0  0  0  0  0  0  0  0
   14.7425   10.0739   19.0802 O   0  0  0  0  0  0  0  0  0  0  0  0
    5.1894    9.4673   20.7118 C   0  0  0  0  0  0  0  0  0  0  0  0
    7.3773    8.8224   21.4870 C   0  0  0  0  0  0  0  0  0  0  0  0
    8.4391    6.6439   21.0235 C   0  0  0  0  0  0  0  0  0  0  0  0
    9.6494   11.1353   20.4167 C   0  0  0  0  0  0  0  0  0  0  0  0
    8.1431    7.6829   21.9046 C   0  0  0  0  0  0  0  0  0  0  0  0
    7.7796   10.1314   21.5115 N   0  0  0  0  0  0  0  0  0  0  0  0
    9.2768    5.6183   21.4437 C   0  0  0  0  0  0  0  0  0  0  0  0
    8.6315    7.7322   23.1768 C   0  0  0  0  0  0  0  0  0  0  0  0
   13.0537    9.9821   20.5781 C   0  0  0  0  0  0  0  0  0  0  0  0
   10.3850    4.6575   23.2386 O   0  0  0  0  0  0  0  0  0  0  0  0
    4.2069    6.8450   20.7994 C   0  0  0  0  0  0  0  0  0  0  0  0
    3.0726   10.1043   19.8522 O   0  0  0  0  0  0  0  0  0  0  0  0
    5.5057    7.1196   21.1155 C   0  0  0  0  0  0  0  0  0  0  0  0
    7.0367   11.0229   21.9948 O   0  0  0  0  0  0  0  0  0  0  0  0
  1  8  4  0
  1 12  4  0
  2  9  1  0
  2 11  4  0
  2 25  4  0
  3 12  4  0
  3 14  1  0
  3 23  4  0
  4 13  4  0
  4 21  4  0
  4 24  1  0
  5  8  4  0
  5 23  4  0
  6 18  2  0
  7 15  4  0
  7 16  1  0
  7 27  4  0
  8 18  1  0
 10 18  1  0
 10 20  1  0
 11 15  4  0
 11 26  1  0
 13 22  4  0
 16 19  1  0
 16 20  2  0
 17 19  4  0
 17 21  4  0
 19 22  4  0
 20 28  1  0
 25 27  4  0
M  END
$$$$

 Created by Python create_sdf_string function

 28 30  0  0  0  0  0  0  0  0999 V2000
   11.4592   11.2893   18.7941 C   0  0  0  0  0  0  0  0  0  0  0  0
    3.4202    7.9009   20.3866 C   0  0  0  0  0  0  0  0  0  0  0  0
   13.5280   10.3522   19.3586 C   0  0  0  0  0  0  0  0  0  0  0  0
    9.6923    5.6468   22.7891 C   0  0  0  0  0  0  0  0  0  0  0  0
   11.7756   10.2554   20.8841 N   0  0  0  0  0  0  0  0  0  0  0  0
    8.9876   11.9370   19.8757 O   0  0  0  0  0  0  0  0  0  0  0  0
    6.0167    8.4478   21.1089 C   0  0  0  0  0  0  0  0  0  0  0  0
   11.0002   10.8890   20.0262 C   0  0  0  0  0  0  0  0  0  0  0  0
    2.1721    7.7393   20.0315 O   0  0  0  0  0  0  0  0  0  0  0  0
    9.1107   10.3880   21.3769 N   0  0  0  0  0  0  0  0  0  0  0  0
    3.9102    9.2008   20.3124 C   0  0  0  0  0  0  0  0  0  0  0  0
   12.7292   10.9960   18.4597 C   0  0  0  0  0  0  0  0  0  0  0  0
    9.3798    6.6793   23.6625 C   0  0  0  0  0  0  0  0  0  0  0  0
   14.7425   10.0739   19.0802 O   0  0  0  0  0  0  0  0  0  0  0  0
    5.1894    9.4673   20.7118 C   0  0  0  0  0  0  0  0  0  0  0  0
    7.3773    8.8224   21.4870 C   0  0  0  0  0  0  0  0  0  0  0  0
    8.4391    6.6439   21.0235 C   0  0  0  0  0  0  0  0  0  0  0  0
    9.6494   11.1353   20.4167 C   0  0  0  0  0  0  0  0  0  0  0  0
    8.1431    7.6829   21.9046 C   0  0  0  0  0  0  0  0  0  0  0  0
    7.7796   10.1314   21.5115 N   0  0  0  0  0  0  0  0  0  0  0  0
    9.2768    5.6183   21.4437 C   0  0  0  0  0  0  0  0  0  0  0  0
    8.6315    7.7322   23.1768 C   0  0  0  0  0  0  0  0  0  0  0  0
   13.0537    9.9821   20.5781 C   0  0  0  0  0  0  0  0  0  0  0  0
   10.3850    4.6575   23.2386 O   0  0  0  0  0  0  0  0  0  0  0  0
    4.2069    6.8450   20.7994 C   0  0  0  0  0  0  0  0  0  0  0  0
    3.0726   10.1043   19.8522 O   0  0  0  0  0  0  0  0  0  0  0  0
    5.5057    7.1196   21.1155 C   0  0  0  0  0  0  0  0  0  0  0  0
    7.0367   11.0229   21.9948 O   0  0  0  0  0  0  0  0  0  0  0  0
  1  8  4  0
  1 12  4  0
  2  9  1  0
  2 11  4  0
  2 25  4  0
  3 12  4  0
  3 14  1  0
  3 23  4  0
  4 13  4  0
  4 21  4  0
  4 24  1  0
  5  8  4  0
  5 23  4  0
  6 18  2  0
  7 15  4  0
  7 16  1  0
  7 27  4  0
  8 18  1  0
 10 18  1  0
 10 20  1  0
 11 15  4  0
 11 26  1  0
 13 22  4  0
 16 19  1  0
 16 20  2  0
 17 19  4  0
 17 21  4  0
 19 22  4  0
 20 28  1  0
 25 27  4  0
M  END
$$$$

 Created by Python create_sdf_string function

 28 30  0  0  0  0  0  0  0  0999 V2000
   11.4592   11.2893   18.7941 C   0  0  0  0  0  0  0  0  0  0  0  0
    3.4202    7.9009   20.3866 C   0  0  0  0  0  0  0  0  0  0  0  0
   13.5280   10.3522   19.3586 C   0  0  0  0  0  0  0  0  0  0  0  0
    9.6923    5.6468   22.7891 C   0  0  0  0  0  0  0  0  0  0  0  0
   11.7756   10.2554   20.8841 N   0  0  0  0  0  0  0  0  0  0  0  0
    8.9876   11.9370   19.8757 O   0  0  0  0  0  0  0  0  0  0  0  0
    6.0167    8.4478   21.1089 C   0  0  0  0  0  0  0  0  0  0  0  0
   11.0002   10.8890   20.0262 C   0  0  0  0  0  0  0  0  0  0  0  0
    2.1721    7.7393   20.0315 O   0  0  0  0  0  0  0  0  0  0  0  0
    9.1107   10.3880   21.3769 N   0  0  0  0  0  0  0  0  0  0  0  0
    3.9102    9.2008   20.3124 C   0  0  0  0  0  0  0  0  0  0  0  0
   12.7292   10.9960   18.4597 C   0  0  0  0  0  0  0  0  0  0  0  0
    9.3798    6.6793   23.6625 C   0  0  0  0  0  0  0  0  0  0  0  0
   14.7425   10.0739   19.0802 O   0  0  0  0  0  0  0  0  0  0  0  0
    5.1894    9.4673   20.7118 C   0  0  0  0  0  0  0  0  0  0  0  0
    7.3773    8.8224   21.4870 C   0  0  0  0  0  0  0  0  0  0  0  0
    8.4391    6.6439   21.0235 C   0  0  0  0  0  0  0  0  0  0  0  0
    9.6494   11.1353   20.4167 C   0  0  0  0  0  0  0  0  0  0  0  0
    8.1431    7.6829   21.9046 C   0  0  0  0  0  0  0  0  0  0  0  0
    7.7796   10.1314   21.5115 N   0  0  0  0  0  0  0  0  0  0  0  0
    9.2768    5.6183   21.4437 C   0  0  0  0  0  0  0  0  0  0  0  0
    8.6315    7.7322   23.1768 C   0  0  0  0  0  0  0  0  0  0  0  0
   13.0537    9.9821   20.5781 C   0  0  0  0  0  0  0  0  0  0  0  0
   10.3850    4.6575   23.2386 O   0  0  0  0  0  0  0  0  0  0  0  0
    4.2069    6.8450   20.7994 C   0  0  0  0  0  0  0  0  0  0  0  0
    3.0726   10.1043   19.8522 O   0  0  0  0  0  0  0  0  0  0  0  0
    5.5057    7.1196   21.1155 C   0  0  0  0  0  0  0  0  0  0  0  0
    7.0367   11.0229   21.9948 O   0  0  0  0  0  0  0  0  0  0  0  0
  1  8  4  0
  1 12  4  0
  2  9  1  0
  2 11  4  0
  2 25  4  0
  3 12  4  0
  3 14  1  0
  3 23  4  0
  4 13  4  0
  4 21  4  0
  4 24  1  0
  5  8  4  0
  5 23  4  0
  6 18  2  0
  7 15  4  0
  7 16  1  0
  7 27  4  0
  8 18  1  0
 10 18  1  0
 10 20  1  0
 11 15  4  0
 11 26  1  0
 13 22  4  0
 16 19  1  0
 16 20  2  0
 17 19  4  0
 17 21  4  0
 19 22  4  0
 20 28  1  0
 25 27  4  0
M  END
$$$$

 Created by Python create_sdf_string function

 28 30  0  0  0  0  0  0  0  0999 V2000
   11.4592   11.2893   18.7941 C   0  0  0  0  0  0  0  0  0  0  0  0
    3.4202    7.9009   20.3866 C   0  0  0  0  0  0  0  0  0  0  0  0
   13.5280   10.3522   19.3586 C   0  0  0  0  0  0  0  0  0  0  0  0
    9.6923    5.6468   22.7891 C   0  0  0  0  0  0  0  0  0  0  0  0
   11.7756   10.2554   20.8841 N   0  0  0  0  0  0  0  0  0  0  0  0
    8.9876   11.9370   19.8757 O   0  0  0  0  0  0  0  0  0  0  0  0
    6.0167    8.4478   21.1089 C   0  0  0  0  0  0  0  0  0  0  0  0
   11.0002   10.8890   20.0262 C   0  0  0  0  0  0  0  0  0  0  0  0
    2.1721    7.7393   20.0315 O   0  0  0  0  0  0  0  0  0  0  0  0
    9.1107   10.3880   21.3769 N   0  0  0  0  0  0  0  0  0  0  0  0
    3.9102    9.2008   20.3124 C   0  0  0  0  0  0  0  0  0  0  0  0
   12.7292   10.9960   18.4597 C   0  0  0  0  0  0  0  0  0  0  0  0
    9.3798    6.6793   23.6625 C   0  0  0  0  0  0  0  0  0  0  0  0
   14.7425   10.0739   19.0802 O   0  0  0  0  0  0  0  0  0  0  0  0
    5.1894    9.4673   20.7118 C   0  0  0  0  0  0  0  0  0  0  0  0
    7.3773    8.8224   21.4870 C   0  0  0  0  0  0  0  0  0  0  0  0
    8.4391    6.6439   21.0235 C   0  0  0  0  0  0  0  0  0  0  0  0
    9.6494   11.1353   20.4167 C   0  0  0  0  0  0  0  0  0  0  0  0
    8.1431    7.6829   21.9046 C   0  0  0  0  0  0  0  0  0  0  0  0
    7.7796   10.1314   21.5115 N   0  0  0  0  0  0  0  0  0  0  0  0
    9.2768    5.6183   21.4437 C   0  0  0  0  0  0  0  0  0  0  0  0
    8.6315    7.7322   23.1768 C   0  0  0  0  0  0  0  0  0  0  0  0
   13.0537    9.9821   20.5781 C   0  0  0  0  0  0  0  0  0  0  0  0
   10.3850    4.6575   23.2386 O   0  0  0  0  0  0  0  0  0  0  0  0
    4.2069    6.8450   20.7994 C   0  0  0  0  0  0  0  0  0  0  0  0
    3.0726   10.1043   19.8522 O   0  0  0  0  0  0  0  0  0  0  0  0
    5.5057    7.1196   21.1155 C   0  0  0  0  0  0  0  0  0  0  0  0
    7.0367   11.0229   21.9948 O   0  0  0  0  0  0  0  0  0  0  0  0
  1  8  4  0
  1 12  4  0
  2  9  1  0
  2 11  4  0
  2 25  4  0
  3 12  4  0
  3 14  1  0
  3 23  4  0
  4 13  4  0
  4 21  4  0
  4 24  1  0
  5  8  4  0
  5 23  4  0
  6 18  2  0
  7 15  4  0
  7 16  1  0
  7 27  4  0
  8 18  1  0
 10 18  1  0
 10 20  1  0
 11 15  4  0
 11 26  1  0
 13 22  4  0
 16 19  1  0
 16 20  2  0
 17 19  4  0
 17 21  4  0
 19 22  4  0
 20 28  1  0
 25 27  4  0
M  END
$$$$

 Created by Python create_sdf_string function

 28 30  0  0  0  0  0  0  0  0999 V2000
   11.4592   11.2893   18.7941 C   0  0  0  0  0  0  0  0  0  0  0  0
    3.4202    7.9009   20.3866 C   0  0  0  0  0  0  0  0  0  0  0  0
   13.5280   10.3522   19.3586 C   0  0  0  0  0  0  0  0  0  0  0  0
    9.6923    5.6468   22.7891 C   0  0  0  0  0  0  0  0  0  0  0  0
   11.7756   10.2554   20.8841 N   0  0  0  0  0  0  0  0  0  0  0  0
    8.9876   11.9370   19.8757 O   0  0  0  0  0  0  0  0  0  0  0  0
    6.0167    8.4478   21.1089 C   0  0  0  0  0  0  0  0  0  0  0  0
   11.0002   10.8890   20.0262 C   0  0  0  0  0  0  0  0  0  0  0  0
    2.1721    7.7393   20.0315 O   0  0  0  0  0  0  0  0  0  0  0  0
    9.1107   10.3880   21.3769 N   0  0  0  0  0  0  0  0  0  0  0  0
    3.9102    9.2008   20.3124 C   0  0  0  0  0  0  0  0  0  0  0  0
   12.7292   10.9960   18.4597 C   0  0  0  0  0  0  0  0  0  0  0  0
    9.3798    6.6793   23.6625 C   0  0  0  0  0  0  0  0  0  0  0  0
   14.7425   10.0739   19.0802 O   0  0  0  0  0  0  0  0  0  0  0  0
    5.1894    9.4673   20.7118 C   0  0  0  0  0  0  0  0  0  0  0  0
    7.3773    8.8224   21.4870 C   0  0  0  0  0  0  0  0  0  0  0  0
    8.4391    6.6439   21.0235 C   0  0  0  0  0  0  0  0  0  0  0  0
    9.6494   11.1353   20.4167 C   0  0  0  0  0  0  0  0  0  0  0  0
    8.1431    7.6829   21.9046 C   0  0  0  0  0  0  0  0  0  0  0  0
    7.7796   10.1314   21.5115 N   0  0  0  0  0  0  0  0  0  0  0  0
    9.2768    5.6183   21.4437 C   0  0  0  0  0  0  0  0  0  0  0  0
    8.6315    7.7322   23.1768 C   0  0  0  0  0  0  0  0  0  0  0  0
   13.0537    9.9821   20.5781 C   0  0  0  0  0  0  0  0  0  0  0  0
   10.3850    4.6575   23.2386 O   0  0  0  0  0  0  0  0  0  0  0  0
    4.2069    6.8450   20.7994 C   0  0  0  0  0  0  0  0  0  0  0  0
    3.0726   10.1043   19.8522 O   0  0  0  0  0  0  0  0  0  0  0  0
    5.5057    7.1196   21.1155 C   0  0  0  0  0  0  0  0  0  0  0  0
    7.0367   11.0229   21.9948 O   0  0  0  0  0  0  0  0  0  0  0  0
  1  8  4  0
  1 12  4  0
  2  9  1  0
  2 11  4  0
  2 25  4  0
  3 12  4  0
  3 14  1  0
  3 23  4  0
  4 13  4  0
  4 21  4  0
  4 24  1  0
  5  8  4  0
  5 23  4  0
  6 18  2  0
  7 15  4  0
  7 16  1  0
  7 27  4  0
  8 18  1  0
 10 18  1  0
 10 20  1  0
 11 15  4  0
 11 26  1  0
 13 22  4  0
 16 19  1  0
 16 20  2  0
 17 19  4  0
 17 21  4  0
 19 22  4  0
 20 28  1  0
 25 27  4  0
M  END
$$$$

 Created by Python create_sdf_string function

 28 30  0  0  0  0  0  0  0  0999 V2000
   11.4592   11.2893   18.7941 C   0  0  0  0  0  0  0  0  0  0  0  0
    3.4202    7.9009   20.3866 C   0  0  0  0  0  0  0  0  0  0  0  0
   13.5280   10.3522   19.3586 C   0  0  0  0  0  0  0  0  0  0  0  0
    9.6923    5.6468   22.7891 C   0  0  0  0  0  0  0  0  0  0  0  0
   11.7756   10.2554   20.8841 N   0  0  0  0  0  0  0  0  0  0  0  0
    8.9876   11.9370   19.8757 O   0  0  0  0  0  0  0  0  0  0  0  0
    6.0167    8.4478   21.1089 C   0  0  0  0  0  0  0  0  0  0  0  0
   11.0002   10.8890   20.0262 C   0  0  0  0  0  0  0  0  0  0  0  0
    2.1721    7.7393   20.0315 O   0  0  0  0  0  0  0  0  0  0  0  0
    9.1107   10.3880   21.3769 N   0  0  0  0  0  0  0  0  0  0  0  0
    3.9102    9.2008   20.3124 C   0  0  0  0  0  0  0  0  0  0  0  0
   12.7292   10.9960   18.4597 C   0  0  0  0  0  0  0  0  0  0  0  0
    9.3798    6.6793   23.6625 C   0  0  0  0  0  0  0  0  0  0  0  0
   14.7425   10.0739   19.0802 O   0  0  0  0  0  0  0  0  0  0  0  0
    5.1894    9.4673   20.7118 C   0  0  0  0  0  0  0  0  0  0  0  0
    7.3773    8.8224   21.4870 C   0  0  0  0  0  0  0  0  0  0  0  0
    8.4391    6.6439   21.0235 C   0  0  0  0  0  0  0  0  0  0  0  0
    9.6494   11.1353   20.4167 C   0  0  0  0  0  0  0  0  0  0  0  0
    8.1431    7.6829   21.9046 C   0  0  0  0  0  0  0  0  0  0  0  0
    7.7796   10.1314   21.5115 N   0  0  0  0  0  0  0  0  0  0  0  0
    9.2768    5.6183   21.4437 C   0  0  0  0  0  0  0  0  0  0  0  0
    8.6315    7.7322   23.1768 C   0  0  0  0  0  0  0  0  0  0  0  0
   13.0537    9.9821   20.5781 C   0  0  0  0  0  0  0  0  0  0  0  0
   10.3850    4.6575   23.2386 O   0  0  0  0  0  0  0  0  0  0  0  0
    4.2069    6.8450   20.7994 C   0  0  0  0  0  0  0  0  0  0  0  0
    3.0726   10.1043   19.8522 O   0  0  0  0  0  0  0  0  0  0  0  0
    5.5057    7.1196   21.1155 C   0  0  0  0  0  0  0  0  0  0  0  0
    7.0367   11.0229   21.9948 O   0  0  0  0  0  0  0  0  0  0  0  0
  1  8  4  0
  1 12  4  0
  2  9  1  0
  2 11  4  0
  2 25  4  0
  3 12  4  0
  3 14  1  0
  3 23  4  0
  4 13  4  0
  4 21  4  0
  4 24  1  0
  5  8  4  0
  5 23  4  0
  6 18  2  0
  7 15  4  0
  7 16  1  0
  7 27  4  0
  8 18  1  0
 10 18  1  0
 10 20  1  0
 11 15  4  0
 11 26  1  0
 13 22  4  0
 16 19  1  0
 16 20  2  0
 17 19  4  0
 17 21  4  0
 19 22  4  0
 20 28  1  0
 25 27  4  0
M  END
$$$$

 Created by Python create_sdf_string function

 28 30  0  0  0  0  0  0  0  0999 V2000
   11.4592   11.2893   18.7941 C   0  0  0  0  0  0  0  0  0  0  0  0
    3.4202    7.9009   20.3866 C   0  0  0  0  0  0  0  0  0  0  0  0
   13.5280   10.3522   19.3586 C   0  0  0  0  0  0  0  0  0  0  0  0
    9.6923    5.6468   22.7891 C   0  0  0  0  0  0  0  0  0  0  0  0
   11.7756   10.2554   20.8841 N   0  0  0  0  0  0  0  0  0  0  0  0
    8.9876   11.9370   19.8757 O   0  0  0  0  0  0  0  0  0  0  0  0
    6.0167    8.4478   21.1089 C   0  0  0  0  0  0  0  0  0  0  0  0
   11.0002   10.8890   20.0262 C   0  0  0  0  0  0  0  0  0  0  0  0
    2.1721    7.7393   20.0315 O   0  0  0  0  0  0  0  0  0  0  0  0
    9.1107   10.3880   21.3769 N   0  0  0  0  0  0  0  0  0  0  0  0
    3.9102    9.2008   20.3124 C   0  0  0  0  0  0  0  0  0  0  0  0
   12.7292   10.9960   18.4597 C   0  0  0  0  0  0  0  0  0  0  0  0
    9.3798    6.6793   23.6625 C   0  0  0  0  0  0  0  0  0  0  0  0
   14.7425   10.0739   19.0802 O   0  0  0  0  0  0  0  0  0  0  0  0
    5.1894    9.4673   20.7118 C   0  0  0  0  0  0  0  0  0  0  0  0
    7.3773    8.8224   21.4870 C   0  0  0  0  0  0  0  0  0  0  0  0
    8.4391    6.6439   21.0235 C   0  0  0  0  0  0  0  0  0  0  0  0
    9.6494   11.1353   20.4167 C   0  0  0  0  0  0  0  0  0  0  0  0
    8.1431    7.6829   21.9046 C   0  0  0  0  0  0  0  0  0  0  0  0
    7.7796   10.1314   21.5115 N   0  0  0  0  0  0  0  0  0  0  0  0
    9.2768    5.6183   21.4437 C   0  0  0  0  0  0  0  0  0  0  0  0
    8.6315    7.7322   23.1768 C   0  0  0  0  0  0  0  0  0  0  0  0
   13.0537    9.9821   20.5781 C   0  0  0  0  0  0  0  0  0  0  0  0
   10.3850    4.6575   23.2386 O   0  0  0  0  0  0  0  0  0  0  0  0
    4.2069    6.8450   20.7994 C   0  0  0  0  0  0  0  0  0  0  0  0
    3.0726   10.1043   19.8522 O   0  0  0  0  0  0  0  0  0  0  0  0
    5.5057    7.1196   21.1155 C   0  0  0  0  0  0  0  0  0  0  0  0
    7.0367   11.0229   21.9948 O   0  0  0  0  0  0  0  0  0  0  0  0
  1  8  4  0
  1 12  4  0
  2  9  1  0
  2 11  4  0
  2 25  4  0
  3 12  4  0
  3 14  1  0
  3 23  4  0
  4 13  4  0
  4 21  4  0
  4 24  1  0
  5  8  4  0
  5 23  4  0
  6 18  2  0
  7 15  4  0
  7 16  1  0
  7 27  4  0
  8 18  1  0
 10 18  1  0
 10 20  1  0
 11 15  4  0
 11 26  1  0
 13 22  4  0
 16 19  1  0
 16 20  2  0
 17 19  4  0
 17 21  4  0
 19 22  4  0
 20 28  1  0
 25 27  4  0
M  END
$$$$

 Created by Python create_sdf_string function

 28 30  0  0  0  0  0  0  0  0999 V2000
   11.4592   11.2893   18.7941 C   0  0  0  0  0  0  0  0  0  0  0  0
    3.4202    7.9009   20.3866 C   0  0  0  0  0  0  0  0  0  0  0  0
   13.5280   10.3522   19.3586 C   0  0  0  0  0  0  0  0  0  0  0  0
    9.6923    5.6468   22.7891 C   0  0  0  0  0  0  0  0  0  0  0  0
   11.7756   10.2554   20.8841 N   0  0  0  0  0  0  0  0  0  0  0  0
    8.9876   11.9370   19.8757 O   0  0  0  0  0  0  0  0  0  0  0  0
    6.0167    8.4478   21.1089 C   0  0  0  0  0  0  0  0  0  0  0  0
   11.0002   10.8890   20.0262 C   0  0  0  0  0  0  0  0  0  0  0  0
    2.1721    7.7393   20.0315 O   0  0  0  0  0  0  0  0  0  0  0  0
    9.1107   10.3880   21.3769 N   0  0  0  0  0  0  0  0  0  0  0  0
    3.9102    9.2008   20.3124 C   0  0  0  0  0  0  0  0  0  0  0  0
   12.7292   10.9960   18.4597 C   0  0  0  0  0  0  0  0  0  0  0  0
    9.3798    6.6793   23.6625 C   0  0  0  0  0  0  0  0  0  0  0  0
   14.7425   10.0739   19.0802 O   0  0  0  0  0  0  0  0  0  0  0  0
    5.1894    9.4673   20.7118 C   0  0  0  0  0  0  0  0  0  0  0  0
    7.3773    8.8224   21.4870 C   0  0  0  0  0  0  0  0  0  0  0  0
    8.4391    6.6439   21.0235 C   0  0  0  0  0  0  0  0  0  0  0  0
    9.6494   11.1353   20.4167 C   0  0  0  0  0  0  0  0  0  0  0  0
    8.1431    7.6829   21.9046 C   0  0  0  0  0  0  0  0  0  0  0  0
    7.7796   10.1314   21.5115 N   0  0  0  0  0  0  0  0  0  0  0  0
    9.2768    5.6183   21.4437 C   0  0  0  0  0  0  0  0  0  0  0  0
    8.6315    7.7322   23.1768 C   0  0  0  0  0  0  0  0  0  0  0  0
   13.0537    9.9821   20.5781 C   0  0  0  0  0  0  0  0  0  0  0  0
   10.3850    4.6575   23.2386 O   0  0  0  0  0  0  0  0  0  0  0  0
    4.2069    6.8450   20.7994 C   0  0  0  0  0  0  0  0  0  0  0  0
    3.0726   10.1043   19.8522 O   0  0  0  0  0  0  0  0  0  0  0  0
    5.5057    7.1196   21.1155 C   0  0  0  0  0  0  0  0  0  0  0  0
    7.0367   11.0229   21.9948 O   0  0  0  0  0  0  0  0  0  0  0  0
  1  8  4  0
  1 12  4  0
  2  9  1  0
  2 11  4  0
  2 25  4  0
  3 12  4  0
  3 14  1  0
  3 23  4  0
  4 13  4  0
  4 21  4  0
  4 24  1  0
  5  8  4  0
  5 23  4  0
  6 18  2  0
  7 15  4  0
  7 16  1  0
  7 27  4  0
  8 18  1  0
 10 18  1  0
 10 20  1  0
 11 15  4  0
 11 26  1  0
 13 22  4  0
 16 19  1  0
 16 20  2  0
 17 19  4  0
 17 21  4  0
 19 22  4  0
 20 28  1  0
 25 27  4  0
M  END
$$$$

 Created by Python create_sdf_string function

 28 30  0  0  0  0  0  0  0  0999 V2000
   11.4592   11.2893   18.7941 C   0  0  0  0  0  0  0  0  0  0  0  0
    3.4202    7.9009   20.3866 C   0  0  0  0  0  0  0  0  0  0  0  0
   13.5280   10.3522   19.3586 C   0  0  0  0  0  0  0  0  0  0  0  0
    9.6923    5.6468   22.7891 C   0  0  0  0  0  0  0  0  0  0  0  0
   11.7756   10.2554   20.8841 N   0  0  0  0  0  0  0  0  0  0  0  0
    8.9876   11.9370   19.8757 O   0  0  0  0  0  0  0  0  0  0  0  0
    6.0167    8.4478   21.1089 C   0  0  0  0  0  0  0  0  0  0  0  0
   11.0002   10.8890   20.0262 C   0  0  0  0  0  0  0  0  0  0  0  0
    2.1721    7.7393   20.0315 O   0  0  0  0  0  0  0  0  0  0  0  0
    9.1107   10.3880   21.3769 N   0  0  0  0  0  0  0  0  0  0  0  0
    3.9102    9.2008   20.3124 C   0  0  0  0  0  0  0  0  0  0  0  0
   12.7292   10.9960   18.4597 C   0  0  0  0  0  0  0  0  0  0  0  0
    9.3798    6.6793   23.6625 C   0  0  0  0  0  0  0  0  0  0  0  0
   14.7425   10.0739   19.0802 O   0  0  0  0  0  0  0  0  0  0  0  0
    5.1894    9.4673   20.7118 C   0  0  0  0  0  0  0  0  0  0  0  0
    7.3773    8.8224   21.4870 C   0  0  0  0  0  0  0  0  0  0  0  0
    8.4391    6.6439   21.0235 C   0  0  0  0  0  0  0  0  0  0  0  0
    9.6494   11.1353   20.4167 C   0  0  0  0  0  0  0  0  0  0  0  0
    8.1431    7.6829   21.9046 C   0  0  0  0  0  0  0  0  0  0  0  0
    7.7796   10.1314   21.5115 N   0  0  0  0  0  0  0  0  0  0  0  0
    9.2768    5.6183   21.4437 C   0  0  0  0  0  0  0  0  0  0  0  0
    8.6315    7.7322   23.1768 C   0  0  0  0  0  0  0  0  0  0  0  0
   13.0537    9.9821   20.5781 C   0  0  0  0  0  0  0  0  0  0  0  0
   10.3850    4.6575   23.2386 O   0  0  0  0  0  0  0  0  0  0  0  0
    4.2069    6.8450   20.7994 C   0  0  0  0  0  0  0  0  0  0  0  0
    3.0726   10.1043   19.8522 O   0  0  0  0  0  0  0  0  0  0  0  0
    5.5057    7.1196   21.1155 C   0  0  0  0  0  0  0  0  0  0  0  0
    7.0367   11.0229   21.9948 O   0  0  0  0  0  0  0  0  0  0  0  0
  1  8  4  0
  1 12  4  0
  2  9  1  0
  2 11  4  0
  2 25  4  0
  3 12  4  0
  3 14  1  0
  3 23  4  0
  4 13  4  0
  4 21  4  0
  4 24  1  0
  5  8  4  0
  5 23  4  0
  6 18  2  0
  7 15  4  0
  7 16  1  0
  7 27  4  0
  8 18  1  0
 10 18  1  0
 10 20  1  0
 11 15  4  0
 11 26  1  0
 13 22  4  0
 16 19  1  0
 16 20  2  0
 17 19  4  0
 17 21  4  0
 19 22  4  0
 20 28  1  0
 25 27  4  0
M  END
$$$$

 Created by Python create_sdf_string function

 28 30  0  0  0  0  0  0  0  0999 V2000
   11.4592   11.2893   18.7941 C   0  0  0  0  0  0  0  0  0  0  0  0
    3.4202    7.9009   20.3866 C   0  0  0  0  0  0  0  0  0  0  0  0
   13.5280   10.3522   19.3586 C   0  0  0  0  0  0  0  0  0  0  0  0
    9.6923    5.6468   22.7891 C   0  0  0  0  0  0  0  0  0  0  0  0
   11.7756   10.2554   20.8841 N   0  0  0  0  0  0  0  0  0  0  0  0
    8.9876   11.9370   19.8757 O   0  0  0  0  0  0  0  0  0  0  0  0
    6.0167    8.4478   21.1089 C   0  0  0  0  0  0  0  0  0  0  0  0
   11.0002   10.8890   20.0262 C   0  0  0  0  0  0  0  0  0  0  0  0
    2.1721    7.7393   20.0315 O   0  0  0  0  0  0  0  0  0  0  0  0
    9.1107   10.3880   21.3769 N   0  0  0  0  0  0  0  0  0  0  0  0
    3.9102    9.2008   20.3124 C   0  0  0  0  0  0  0  0  0  0  0  0
   12.7292   10.9960   18.4597 C   0  0  0  0  0  0  0  0  0  0  0  0
    9.3798    6.6793   23.6625 C   0  0  0  0  0  0  0  0  0  0  0  0
   14.7425   10.0739   19.0802 O   0  0  0  0  0  0  0  0  0  0  0  0
    5.1894    9.4673   20.7118 C   0  0  0  0  0  0  0  0  0  0  0  0
    7.3773    8.8224   21.4870 C   0  0  0  0  0  0  0  0  0  0  0  0
    8.4391    6.6439   21.0235 C   0  0  0  0  0  0  0  0  0  0  0  0
    9.6494   11.1353   20.4167 C   0  0  0  0  0  0  0  0  0  0  0  0
    8.1431    7.6829   21.9046 C   0  0  0  0  0  0  0  0  0  0  0  0
    7.7796   10.1314   21.5115 N   0  0  0  0  0  0  0  0  0  0  0  0
    9.2768    5.6183   21.4437 C   0  0  0  0  0  0  0  0  0  0  0  0
    8.6315    7.7322   23.1768 C   0  0  0  0  0  0  0  0  0  0  0  0
   13.0537    9.9821   20.5781 C   0  0  0  0  0  0  0  0  0  0  0  0
   10.3850    4.6575   23.2386 O   0  0  0  0  0  0  0  0  0  0  0  0
    4.2069    6.8450   20.7994 C   0  0  0  0  0  0  0  0  0  0  0  0
    3.0726   10.1043   19.8522 O   0  0  0  0  0  0  0  0  0  0  0  0
    5.5057    7.1196   21.1155 C   0  0  0  0  0  0  0  0  0  0  0  0
    7.0367   11.0229   21.9948 O   0  0  0  0  0  0  0  0  0  0  0  0
  1  8  4  0
  1 12  4  0
  2  9  1  0
  2 11  4  0
  2 25  4  0
  3 12  4  0
  3 14  1  0
  3 23  4  0
  4 13  4  0
  4 21  4  0
  4 24  1  0
  5  8  4  0
  5 23  4  0
  6 18  2  0
  7 15  4  0
  7 16  1  0
  7 27  4  0
  8 18  1  0
 10 18  1  0
 10 20  1  0
 11 15  4  0
 11 26  1  0
 13 22  4  0
 16 19  1  0
 16 20  2  0
 17 19  4  0
 17 21  4  0
 19 22  4  0
 20 28  1  0
 25 27  4  0
M  END
$$$$

 Created by Python create_sdf_string function

 28 30  0  0  0  0  0  0  0  0999 V2000
   11.4592   11.2893   18.7941 C   0  0  0  0  0  0  0  0  0  0  0  0
    3.4202    7.9009   20.3866 C   0  0  0  0  0  0  0  0  0  0  0  0
   13.5280   10.3522   19.3586 C   0  0  0  0  0  0  0  0  0  0  0  0
    9.6923    5.6468   22.7891 C   0  0  0  0  0  0  0  0  0  0  0  0
   11.7756   10.2554   20.8841 N   0  0  0  0  0  0  0  0  0  0  0  0
    8.9876   11.9370   19.8757 O   0  0  0  0  0  0  0  0  0  0  0  0
    6.0167    8.4478   21.1089 C   0  0  0  0  0  0  0  0  0  0  0  0
   11.0002   10.8890   20.0262 C   0  0  0  0  0  0  0  0  0  0  0  0
    2.1721    7.7393   20.0315 O   0  0  0  0  0  0  0  0  0  0  0  0
    9.1107   10.3880   21.3769 N   0  0  0  0  0  0  0  0  0  0  0  0
    3.9102    9.2008   20.3124 C   0  0  0  0  0  0  0  0  0  0  0  0
   12.7292   10.9960   18.4597 C   0  0  0  0  0  0  0  0  0  0  0  0
    9.3798    6.6793   23.6625 C   0  0  0  0  0  0  0  0  0  0  0  0
   14.7425   10.0739   19.0802 O   0  0  0  0  0  0  0  0  0  0  0  0
    5.1894    9.4673   20.7118 C   0  0  0  0  0  0  0  0  0  0  0  0
    7.3773    8.8224   21.4870 C   0  0  0  0  0  0  0  0  0  0  0  0
    8.4391    6.6439   21.0235 C   0  0  0  0  0  0  0  0  0  0  0  0
    9.6494   11.1353   20.4167 C   0  0  0  0  0  0  0  0  0  0  0  0
    8.1431    7.6829   21.9046 C   0  0  0  0  0  0  0  0  0  0  0  0
    7.7796   10.1314   21.5115 N   0  0  0  0  0  0  0  0  0  0  0  0
    9.2768    5.6183   21.4437 C   0  0  0  0  0  0  0  0  0  0  0  0
    8.6315    7.7322   23.1768 C   0  0  0  0  0  0  0  0  0  0  0  0
   13.0537    9.9821   20.5781 C   0  0  0  0  0  0  0  0  0  0  0  0
   10.3850    4.6575   23.2386 O   0  0  0  0  0  0  0  0  0  0  0  0
    4.2069    6.8450   20.7994 C   0  0  0  0  0  0  0  0  0  0  0  0
    3.0726   10.1043   19.8522 O   0  0  0  0  0  0  0  0  0  0  0  0
    5.5057    7.1196   21.1155 C   0  0  0  0  0  0  0  0  0  0  0  0
    7.0367   11.0229   21.9948 O   0  0  0  0  0  0  0  0  0  0  0  0
  1  8  4  0
  1 12  4  0
  2  9  1  0
  2 11  4  0
  2 25  4  0
  3 12  4  0
  3 14  1  0
  3 23  4  0
  4 13  4  0
  4 21  4  0
  4 24  1  0
  5  8  4  0
  5 23  4  0
  6 18  2  0
  7 15  4  0
  7 16  1  0
  7 27  4  0
  8 18  1  0
 10 18  1  0
 10 20  1  0
 11 15  4  0
 11 26  1  0
 13 22  4  0
 16 19  1  0
 16 20  2  0
 17 19  4  0
 17 21  4  0
 19 22  4  0
 20 28  1  0
 25 27  4  0
M  END
$$$$

 Created by Python create_sdf_string function

 28 30  0  0  0  0  0  0  0  0999 V2000
   11.4592   11.2893   18.7941 C   0  0  0  0  0  0  0  0  0  0  0  0
    3.4202    7.9009   20.3866 C   0  0  0  0  0  0  0  0  0  0  0  0
   13.5280   10.3522   19.3586 C   0  0  0  0  0  0  0  0  0  0  0  0
    9.6923    5.6468   22.7891 C   0  0  0  0  0  0  0  0  0  0  0  0
   11.7756   10.2554   20.8841 N   0  0  0  0  0  0  0  0  0  0  0  0
    8.9876   11.9370   19.8757 O   0  0  0  0  0  0  0  0  0  0  0  0
    6.0167    8.4478   21.1089 C   0  0  0  0  0  0  0  0  0  0  0  0
   11.0002   10.8890   20.0262 C   0  0  0  0  0  0  0  0  0  0  0  0
    2.1721    7.7393   20.0315 O   0  0  0  0  0  0  0  0  0  0  0  0
    9.1107   10.3880   21.3769 N   0  0  0  0  0  0  0  0  0  0  0  0
    3.9102    9.2008   20.3124 C   0  0  0  0  0  0  0  0  0  0  0  0
   12.7292   10.9960   18.4597 C   0  0  0  0  0  0  0  0  0  0  0  0
    9.3798    6.6793   23.6625 C   0  0  0  0  0  0  0  0  0  0  0  0
   14.7425   10.0739   19.0802 O   0  0  0  0  0  0  0  0  0  0  0  0
    5.1894    9.4673   20.7118 C   0  0  0  0  0  0  0  0  0  0  0  0
    7.3773    8.8224   21.4870 C   0  0  0  0  0  0  0  0  0  0  0  0
    8.4391    6.6439   21.0235 C   0  0  0  0  0  0  0  0  0  0  0  0
    9.6494   11.1353   20.4167 C   0  0  0  0  0  0  0  0  0  0  0  0
    8.1431    7.6829   21.9046 C   0  0  0  0  0  0  0  0  0  0  0  0
    7.7796   10.1314   21.5115 N   0  0  0  0  0  0  0  0  0  0  0  0
    9.2768    5.6183   21.4437 C   0  0  0  0  0  0  0  0  0  0  0  0
    8.6315    7.7322   23.1768 C   0  0  0  0  0  0  0  0  0  0  0  0
   13.0537    9.9821   20.5781 C   0  0  0  0  0  0  0  0  0  0  0  0
   10.3850    4.6575   23.2386 O   0  0  0  0  0  0  0  0  0  0  0  0
    4.2069    6.8450   20.7994 C   0  0  0  0  0  0  0  0  0  0  0  0
    3.0726   10.1043   19.8522 O   0  0  0  0  0  0  0  0  0  0  0  0
    5.5057    7.1196   21.1155 C   0  0  0  0  0  0  0  0  0  0  0  0
    7.0367   11.0229   21.9948 O   0  0  0  0  0  0  0  0  0  0  0  0
  1  8  4  0
  1 12  4  0
  2  9  1  0
  2 11  4  0
  2 25  4  0
  3 12  4  0
  3 14  1  0
  3 23  4  0
  4 13  4  0
  4 21  4  0
  4 24  1  0
  5  8  4  0
  5 23  4  0
  6 18  2  0
  7 15  4  0
  7 16  1  0
  7 27  4  0
  8 18  1  0
 10 18  1  0
 10 20  1  0
 11 15  4  0
 11 26  1  0
 13 22  4  0
 16 19  1  0
 16 20  2  0
 17 19  4  0
 17 21  4  0
 19 22  4  0
 20 28  1  0
 25 27  4  0
M  END
$$$$

 Created by Python create_sdf_string function

 28 30  0  0  0  0  0  0  0  0999 V2000
   11.4592   11.2893   18.7941 C   0  0  0  0  0  0  0  0  0  0  0  0
    3.4202    7.9009   20.3866 C   0  0  0  0  0  0  0  0  0  0  0  0
   13.5280   10.3522   19.3586 C   0  0  0  0  0  0  0  0  0  0  0  0
    9.6923    5.6468   22.7891 C   0  0  0  0  0  0  0  0  0  0  0  0
   11.7756   10.2554   20.8841 N   0  0  0  0  0  0  0  0  0  0  0  0
    8.9876   11.9370   19.8757 O   0  0  0  0  0  0  0  0  0  0  0  0
    6.0167    8.4478   21.1089 C   0  0  0  0  0  0  0  0  0  0  0  0
   11.0002   10.8890   20.0262 C   0  0  0  0  0  0  0  0  0  0  0  0
    2.1721    7.7393   20.0315 O   0  0  0  0  0  0  0  0  0  0  0  0
    9.1107   10.3880   21.3769 N   0  0  0  0  0  0  0  0  0  0  0  0
    3.9102    9.2008   20.3124 C   0  0  0  0  0  0  0  0  0  0  0  0
   12.7292   10.9960   18.4597 C   0  0  0  0  0  0  0  0  0  0  0  0
    9.3798    6.6793   23.6625 C   0  0  0  0  0  0  0  0  0  0  0  0
   14.7425   10.0739   19.0802 O   0  0  0  0  0  0  0  0  0  0  0  0
    5.1894    9.4673   20.7118 C   0  0  0  0  0  0  0  0  0  0  0  0
    7.3773    8.8224   21.4870 C   0  0  0  0  0  0  0  0  0  0  0  0
    8.4391    6.6439   21.0235 C   0  0  0  0  0  0  0  0  0  0  0  0
    9.6494   11.1353   20.4167 C   0  0  0  0  0  0  0  0  0  0  0  0
    8.1431    7.6829   21.9046 C   0  0  0  0  0  0  0  0  0  0  0  0
    7.7796   10.1314   21.5115 N   0  0  0  0  0  0  0  0  0  0  0  0
    9.2768    5.6183   21.4437 C   0  0  0  0  0  0  0  0  0  0  0  0
    8.6315    7.7322   23.1768 C   0  0  0  0  0  0  0  0  0  0  0  0
   13.0537    9.9821   20.5781 C   0  0  0  0  0  0  0  0  0  0  0  0
   10.3850    4.6575   23.2386 O   0  0  0  0  0  0  0  0  0  0  0  0
    4.2069    6.8450   20.7994 C   0  0  0  0  0  0  0  0  0  0  0  0
    3.0726   10.1043   19.8522 O   0  0  0  0  0  0  0  0  0  0  0  0
    5.5057    7.1196   21.1155 C   0  0  0  0  0  0  0  0  0  0  0  0
    7.0367   11.0229   21.9948 O   0  0  0  0  0  0  0  0  0  0  0  0
  1  8  4  0
  1 12  4  0
  2  9  1  0
  2 11  4  0
  2 25  4  0
  3 12  4  0
  3 14  1  0
  3 23  4  0
  4 13  4  0
  4 21  4  0
  4 24  1  0
  5  8  4  0
  5 23  4  0
  6 18  2  0
  7 15  4  0
  7 16  1  0
  7 27  4  0
  8 18  1  0
 10 18  1  0
 10 20  1  0
 11 15  4  0
 11 26  1  0
 13 22  4  0
 16 19  1  0
 16 20  2  0
 17 19  4  0
 17 21  4  0
 19 22  4  0
 20 28  1  0
 25 27  4  0
M  END
$$$$

 Created by Python create_sdf_string function

 28 30  0  0  0  0  0  0  0  0999 V2000
   11.4592   11.2893   18.7941 C   0  0  0  0  0  0  0  0  0  0  0  0
    3.4202    7.9009   20.3866 C   0  0  0  0  0  0  0  0  0  0  0  0
   13.5280   10.3522   19.3586 C   0  0  0  0  0  0  0  0  0  0  0  0
    9.6923    5.6468   22.7891 C   0  0  0  0  0  0  0  0  0  0  0  0
   11.7756   10.2554   20.8841 N   0  0  0  0  0  0  0  0  0  0  0  0
    8.9876   11.9370   19.8757 O   0  0  0  0  0  0  0  0  0  0  0  0
    6.0167    8.4478   21.1089 C   0  0  0  0  0  0  0  0  0  0  0  0
   11.0002   10.8890   20.0262 C   0  0  0  0  0  0  0  0  0  0  0  0
    2.1721    7.7393   20.0315 O   0  0  0  0  0  0  0  0  0  0  0  0
    9.1107   10.3880   21.3769 N   0  0  0  0  0  0  0  0  0  0  0  0
    3.9102    9.2008   20.3124 C   0  0  0  0  0  0  0  0  0  0  0  0
   12.7292   10.9960   18.4597 C   0  0  0  0  0  0  0  0  0  0  0  0
    9.3798    6.6793   23.6625 C   0  0  0  0  0  0  0  0  0  0  0  0
   14.7425   10.0739   19.0802 O   0  0  0  0  0  0  0  0  0  0  0  0
    5.1894    9.4673   20.7118 C   0  0  0  0  0  0  0  0  0  0  0  0
    7.3773    8.8224   21.4870 C   0  0  0  0  0  0  0  0  0  0  0  0
    8.4391    6.6439   21.0235 C   0  0  0  0  0  0  0  0  0  0  0  0
    9.6494   11.1353   20.4167 C   0  0  0  0  0  0  0  0  0  0  0  0
    8.1431    7.6829   21.9046 C   0  0  0  0  0  0  0  0  0  0  0  0
    7.7796   10.1314   21.5115 N   0  0  0  0  0  0  0  0  0  0  0  0
    9.2768    5.6183   21.4437 C   0  0  0  0  0  0  0  0  0  0  0  0
    8.6315    7.7322   23.1768 C   0  0  0  0  0  0  0  0  0  0  0  0
   13.0537    9.9821   20.5781 C   0  0  0  0  0  0  0  0  0  0  0  0
   10.3850    4.6575   23.2386 O   0  0  0  0  0  0  0  0  0  0  0  0
    4.2069    6.8450   20.7994 C   0  0  0  0  0  0  0  0  0  0  0  0
    3.0726   10.1043   19.8522 O   0  0  0  0  0  0  0  0  0  0  0  0
    5.5057    7.1196   21.1155 C   0  0  0  0  0  0  0  0  0  0  0  0
    7.0367   11.0229   21.9948 O   0  0  0  0  0  0  0  0  0  0  0  0
  1  8  4  0
  1 12  4  0
  2  9  1  0
  2 11  4  0
  2 25  4  0
  3 12  4  0
  3 14  1  0
  3 23  4  0
  4 13  4  0
  4 21  4  0
  4 24  1  0
  5  8  4  0
  5 23  4  0
  6 18  2  0
  7 15  4  0
  7 16  1  0
  7 27  4  0
  8 18  1  0
 10 18  1  0
 10 20  1  0
 11 15  4  0
 11 26  1  0
 13 22  4  0
 16 19  1  0
 16 20  2  0
 17 19  4  0
 17 21  4  0
 19 22  4  0
 20 28  1  0
 25 27  4  0
M  END
$$$$

 Created by Python create_sdf_string function

 28 30  0  0  0  0  0  0  0  0999 V2000
   11.4592   11.2893   18.7941 C   0  0  0  0  0  0  0  0  0  0  0  0
    3.4202    7.9009   20.3866 C   0  0  0  0  0  0  0  0  0  0  0  0
   13.5280   10.3522   19.3586 C   0  0  0  0  0  0  0  0  0  0  0  0
    9.6923    5.6468   22.7891 C   0  0  0  0  0  0  0  0  0  0  0  0
   11.7756   10.2554   20.8841 N   0  0  0  0  0  0  0  0  0  0  0  0
    8.9876   11.9370   19.8757 O   0  0  0  0  0  0  0  0  0  0  0  0
    6.0167    8.4478   21.1089 C   0  0  0  0  0  0  0  0  0  0  0  0
   11.0002   10.8890   20.0262 C   0  0  0  0  0  0  0  0  0  0  0  0
    2.1721    7.7393   20.0315 O   0  0  0  0  0  0  0  0  0  0  0  0
    9.1107   10.3880   21.3769 N   0  0  0  0  0  0  0  0  0  0  0  0
    3.9102    9.2008   20.3124 C   0  0  0  0  0  0  0  0  0  0  0  0
   12.7292   10.9960   18.4597 C   0  0  0  0  0  0  0  0  0  0  0  0
    9.3798    6.6793   23.6625 C   0  0  0  0  0  0  0  0  0  0  0  0
   14.7425   10.0739   19.0802 O   0  0  0  0  0  0  0  0  0  0  0  0
    5.1894    9.4673   20.7118 C   0  0  0  0  0  0  0  0  0  0  0  0
    7.3773    8.8224   21.4870 C   0  0  0  0  0  0  0  0  0  0  0  0
    8.4391    6.6439   21.0235 C   0  0  0  0  0  0  0  0  0  0  0  0
    9.6494   11.1353   20.4167 C   0  0  0  0  0  0  0  0  0  0  0  0
    8.1431    7.6829   21.9046 C   0  0  0  0  0  0  0  0  0  0  0  0
    7.7796   10.1314   21.5115 N   0  0  0  0  0  0  0  0  0  0  0  0
    9.2768    5.6183   21.4437 C   0  0  0  0  0  0  0  0  0  0  0  0
    8.6315    7.7322   23.1768 C   0  0  0  0  0  0  0  0  0  0  0  0
   13.0537    9.9821   20.5781 C   0  0  0  0  0  0  0  0  0  0  0  0
   10.3850    4.6575   23.2386 O   0  0  0  0  0  0  0  0  0  0  0  0
    4.2069    6.8450   20.7994 C   0  0  0  0  0  0  0  0  0  0  0  0
    3.0726   10.1043   19.8522 O   0  0  0  0  0  0  0  0  0  0  0  0
    5.5057    7.1196   21.1155 C   0  0  0  0  0  0  0  0  0  0  0  0
    7.0367   11.0229   21.9948 O   0  0  0  0  0  0  0  0  0  0  0  0
  1  8  4  0
  1 12  4  0
  2  9  1  0
  2 11  4  0
  2 25  4  0
  3 12  4  0
  3 14  1  0
  3 23  4  0
  4 13  4  0
  4 21  4  0
  4 24  1  0
  5  8  4  0
  5 23  4  0
  6 18  2  0
  7 15  4  0
  7 16  1  0
  7 27  4  0
  8 18  1  0
 10 18  1  0
 10 20  1  0
 11 15  4  0
 11 26  1  0
 13 22  4  0
 16 19  1  0
 16 20  2  0
 17 19  4  0
 17 21  4  0
 19 22  4  0
 20 28  1  0
 25 27  4  0
M  END
$$$$

 Created by Python create_sdf_string function

 28 30  0  0  0  0  0  0  0  0999 V2000
   11.4592   11.2893   18.7941 C   0  0  0  0  0  0  0  0  0  0  0  0
    3.4202    7.9009   20.3866 C   0  0  0  0  0  0  0  0  0  0  0  0
   13.5280   10.3522   19.3586 C   0  0  0  0  0  0  0  0  0  0  0  0
    9.6923    5.6468   22.7891 C   0  0  0  0  0  0  0  0  0  0  0  0
   11.7756   10.2554   20.8841 N   0  0  0  0  0  0  0  0  0  0  0  0
    8.9876   11.9370   19.8757 O   0  0  0  0  0  0  0  0  0  0  0  0
    6.0167    8.4478   21.1089 C   0  0  0  0  0  0  0  0  0  0  0  0
   11.0002   10.8890   20.0262 C   0  0  0  0  0  0  0  0  0  0  0  0
    2.1721    7.7393   20.0315 O   0  0  0  0  0  0  0  0  0  0  0  0
    9.1107   10.3880   21.3769 N   0  0  0  0  0  0  0  0  0  0  0  0
    3.9102    9.2008   20.3124 C   0  0  0  0  0  0  0  0  0  0  0  0
   12.7292   10.9960   18.4597 C   0  0  0  0  0  0  0  0  0  0  0  0
    9.3798    6.6793   23.6625 C   0  0  0  0  0  0  0  0  0  0  0  0
   14.7425   10.0739   19.0802 O   0  0  0  0  0  0  0  0  0  0  0  0
    5.1894    9.4673   20.7118 C   0  0  0  0  0  0  0  0  0  0  0  0
    7.3773    8.8224   21.4870 C   0  0  0  0  0  0  0  0  0  0  0  0
    8.4391    6.6439   21.0235 C   0  0  0  0  0  0  0  0  0  0  0  0
    9.6494   11.1353   20.4167 C   0  0  0  0  0  0  0  0  0  0  0  0
    8.1431    7.6829   21.9046 C   0  0  0  0  0  0  0  0  0  0  0  0
    7.7796   10.1314   21.5115 N   0  0  0  0  0  0  0  0  0  0  0  0
    9.2768    5.6183   21.4437 C   0  0  0  0  0  0  0  0  0  0  0  0
    8.6315    7.7322   23.1768 C   0  0  0  0  0  0  0  0  0  0  0  0
   13.0537    9.9821   20.5781 C   0  0  0  0  0  0  0  0  0  0  0  0
   10.3850    4.6575   23.2386 O   0  0  0  0  0  0  0  0  0  0  0  0
    4.2069    6.8450   20.7994 C   0  0  0  0  0  0  0  0  0  0  0  0
    3.0726   10.1043   19.8522 O   0  0  0  0  0  0  0  0  0  0  0  0
    5.5057    7.1196   21.1155 C   0  0  0  0  0  0  0  0  0  0  0  0
    7.0367   11.0229   21.9948 O   0  0  0  0  0  0  0  0  0  0  0  0
  1  8  4  0
  1 12  4  0
  2  9  1  0
  2 11  4  0
  2 25  4  0
  3 12  4  0
  3 14  1  0
  3 23  4  0
  4 13  4  0
  4 21  4  0
  4 24  1  0
  5  8  4  0
  5 23  4  0
  6 18  2  0
  7 15  4  0
  7 16  1  0
  7 27  4  0
  8 18  1  0
 10 18  1  0
 10 20  1  0
 11 15  4  0
 11 26  1  0
 13 22  4  0
 16 19  1  0
 16 20  2  0
 17 19  4  0
 17 21  4  0
 19 22  4  0
 20 28  1  0
 25 27  4  0
M  END
$$$$

 Created by Python create_sdf_string function

 28 30  0  0  0  0  0  0  0  0999 V2000
   11.4592   11.2893   18.7941 C   0  0  0  0  0  0  0  0  0  0  0  0
    3.4202    7.9009   20.3866 C   0  0  0  0  0  0  0  0  0  0  0  0
   13.5280   10.3522   19.3586 C   0  0  0  0  0  0  0  0  0  0  0  0
    9.6923    5.6468   22.7891 C   0  0  0  0  0  0  0  0  0  0  0  0
   11.7756   10.2554   20.8841 N   0  0  0  0  0  0  0  0  0  0  0  0
    8.9876   11.9370   19.8757 O   0  0  0  0  0  0  0  0  0  0  0  0
    6.0167    8.4478   21.1089 C   0  0  0  0  0  0  0  0  0  0  0  0
   11.0002   10.8890   20.0262 C   0  0  0  0  0  0  0  0  0  0  0  0
    2.1721    7.7393   20.0315 O   0  0  0  0  0  0  0  0  0  0  0  0
    9.1107   10.3880   21.3769 N   0  0  0  0  0  0  0  0  0  0  0  0
    3.9102    9.2008   20.3124 C   0  0  0  0  0  0  0  0  0  0  0  0
   12.7292   10.9960   18.4597 C   0  0  0  0  0  0  0  0  0  0  0  0
    9.3798    6.6793   23.6625 C   0  0  0  0  0  0  0  0  0  0  0  0
   14.7425   10.0739   19.0802 O   0  0  0  0  0  0  0  0  0  0  0  0
    5.1894    9.4673   20.7118 C   0  0  0  0  0  0  0  0  0  0  0  0
    7.3773    8.8224   21.4870 C   0  0  0  0  0  0  0  0  0  0  0  0
    8.4391    6.6439   21.0235 C   0  0  0  0  0  0  0  0  0  0  0  0
    9.6494   11.1353   20.4167 C   0  0  0  0  0  0  0  0  0  0  0  0
    8.1431    7.6829   21.9046 C   0  0  0  0  0  0  0  0  0  0  0  0
    7.7796   10.1314   21.5115 N   0  0  0  0  0  0  0  0  0  0  0  0
    9.2768    5.6183   21.4437 C   0  0  0  0  0  0  0  0  0  0  0  0
    8.6315    7.7322   23.1768 C   0  0  0  0  0  0  0  0  0  0  0  0
   13.0537    9.9821   20.5781 C   0  0  0  0  0  0  0  0  0  0  0  0
   10.3850    4.6575   23.2386 O   0  0  0  0  0  0  0  0  0  0  0  0
    4.2069    6.8450   20.7994 C   0  0  0  0  0  0  0  0  0  0  0  0
    3.0726   10.1043   19.8522 O   0  0  0  0  0  0  0  0  0  0  0  0
    5.5057    7.1196   21.1155 C   0  0  0  0  0  0  0  0  0  0  0  0
    7.0367   11.0229   21.9948 O   0  0  0  0  0  0  0  0  0  0  0  0
  1  8  4  0
  1 12  4  0
  2  9  1  0
  2 11  4  0
  2 25  4  0
  3 12  4  0
  3 14  1  0
  3 23  4  0
  4 13  4  0
  4 21  4  0
  4 24  1  0
  5  8  4  0
  5 23  4  0
  6 18  2  0
  7 15  4  0
  7 16  1  0
  7 27  4  0
  8 18  1  0
 10 18  1  0
 10 20  1  0
 11 15  4  0
 11 26  1  0
 13 22  4  0
 16 19  1  0
 16 20  2  0
 17 19  4  0
 17 21  4  0
 19 22  4  0
 20 28  1  0
 25 27  4  0
M  END
$$$$

 Created by Python create_sdf_string function

 28 30  0  0  0  0  0  0  0  0999 V2000
   11.4592   11.2893   18.7941 C   0  0  0  0  0  0  0  0  0  0  0  0
    3.4202    7.9009   20.3866 C   0  0  0  0  0  0  0  0  0  0  0  0
   13.5280   10.3522   19.3586 C   0  0  0  0  0  0  0  0  0  0  0  0
    9.6923    5.6468   22.7891 C   0  0  0  0  0  0  0  0  0  0  0  0
   11.7756   10.2554   20.8841 N   0  0  0  0  0  0  0  0  0  0  0  0
    8.9876   11.9370   19.8757 O   0  0  0  0  0  0  0  0  0  0  0  0
    6.0167    8.4478   21.1089 C   0  0  0  0  0  0  0  0  0  0  0  0
   11.0002   10.8890   20.0262 C   0  0  0  0  0  0  0  0  0  0  0  0
    2.1721    7.7393   20.0315 O   0  0  0  0  0  0  0  0  0  0  0  0
    9.1107   10.3880   21.3769 N   0  0  0  0  0  0  0  0  0  0  0  0
    3.9102    9.2008   20.3124 C   0  0  0  0  0  0  0  0  0  0  0  0
   12.7292   10.9960   18.4597 C   0  0  0  0  0  0  0  0  0  0  0  0
    9.3798    6.6793   23.6625 C   0  0  0  0  0  0  0  0  0  0  0  0
   14.7425   10.0739   19.0802 O   0  0  0  0  0  0  0  0  0  0  0  0
    5.1894    9.4673   20.7118 C   0  0  0  0  0  0  0  0  0  0  0  0
    7.3773    8.8224   21.4870 C   0  0  0  0  0  0  0  0  0  0  0  0
    8.4391    6.6439   21.0235 C   0  0  0  0  0  0  0  0  0  0  0  0
    9.6494   11.1353   20.4167 C   0  0  0  0  0  0  0  0  0  0  0  0
    8.1431    7.6829   21.9046 C   0  0  0  0  0  0  0  0  0  0  0  0
    7.7796   10.1314   21.5115 N   0  0  0  0  0  0  0  0  0  0  0  0
    9.2768    5.6183   21.4437 C   0  0  0  0  0  0  0  0  0  0  0  0
    8.6315    7.7322   23.1768 C   0  0  0  0  0  0  0  0  0  0  0  0
   13.0537    9.9821   20.5781 C   0  0  0  0  0  0  0  0  0  0  0  0
   10.3850    4.6575   23.2386 O   0  0  0  0  0  0  0  0  0  0  0  0
    4.2069    6.8450   20.7994 C   0  0  0  0  0  0  0  0  0  0  0  0
    3.0726   10.1043   19.8522 O   0  0  0  0  0  0  0  0  0  0  0  0
    5.5057    7.1196   21.1155 C   0  0  0  0  0  0  0  0  0  0  0  0
    7.0367   11.0229   21.9948 O   0  0  0  0  0  0  0  0  0  0  0  0
  1  8  4  0
  1 12  4  0
  2  9  1  0
  2 11  4  0
  2 25  4  0
  3 12  4  0
  3 14  1  0
  3 23  4  0
  4 13  4  0
  4 21  4  0
  4 24  1  0
  5  8  4  0
  5 23  4  0
  6 18  2  0
  7 15  4  0
  7 16  1  0
  7 27  4  0
  8 18  1  0
 10 18  1  0
 10 20  1  0
 11 15  4  0
 11 26  1  0
 13 22  4  0
 16 19  1  0
 16 20  2  0
 17 19  4  0
 17 21  4  0
 19 22  4  0
 20 28  1  0
 25 27  4  0
M  END
$$$$

 Created by Python create_sdf_string function

 28 30  0  0  0  0  0  0  0  0999 V2000
   11.4592   11.2893   18.7941 C   0  0  0  0  0  0  0  0  0  0  0  0
    3.4202    7.9009   20.3866 C   0  0  0  0  0  0  0  0  0  0  0  0
   13.5280   10.3522   19.3586 C   0  0  0  0  0  0  0  0  0  0  0  0
    9.6923    5.6468   22.7891 C   0  0  0  0  0  0  0  0  0  0  0  0
   11.7756   10.2554   20.8841 N   0  0  0  0  0  0  0  0  0  0  0  0
    8.9876   11.9370   19.8757 O   0  0  0  0  0  0  0  0  0  0  0  0
    6.0167    8.4478   21.1089 C   0  0  0  0  0  0  0  0  0  0  0  0
   11.0002   10.8890   20.0262 C   0  0  0  0  0  0  0  0  0  0  0  0
    2.1721    7.7393   20.0315 O   0  0  0  0  0  0  0  0  0  0  0  0
    9.1107   10.3880   21.3769 N   0  0  0  0  0  0  0  0  0  0  0  0
    3.9102    9.2008   20.3124 C   0  0  0  0  0  0  0  0  0  0  0  0
   12.7292   10.9960   18.4597 C   0  0  0  0  0  0  0  0  0  0  0  0
    9.3798    6.6793   23.6625 C   0  0  0  0  0  0  0  0  0  0  0  0
   14.7425   10.0739   19.0802 O   0  0  0  0  0  0  0  0  0  0  0  0
    5.1894    9.4673   20.7118 C   0  0  0  0  0  0  0  0  0  0  0  0
    7.3773    8.8224   21.4870 C   0  0  0  0  0  0  0  0  0  0  0  0
    8.4391    6.6439   21.0235 C   0  0  0  0  0  0  0  0  0  0  0  0
    9.6494   11.1353   20.4167 C   0  0  0  0  0  0  0  0  0  0  0  0
    8.1431    7.6829   21.9046 C   0  0  0  0  0  0  0  0  0  0  0  0
    7.7796   10.1314   21.5115 N   0  0  0  0  0  0  0  0  0  0  0  0
    9.2768    5.6183   21.4437 C   0  0  0  0  0  0  0  0  0  0  0  0
    8.6315    7.7322   23.1768 C   0  0  0  0  0  0  0  0  0  0  0  0
   13.0537    9.9821   20.5781 C   0  0  0  0  0  0  0  0  0  0  0  0
   10.3850    4.6575   23.2386 O   0  0  0  0  0  0  0  0  0  0  0  0
    4.2069    6.8450   20.7994 C   0  0  0  0  0  0  0  0  0  0  0  0
    3.0726   10.1043   19.8522 O   0  0  0  0  0  0  0  0  0  0  0  0
    5.5057    7.1196   21.1155 C   0  0  0  0  0  0  0  0  0  0  0  0
    7.0367   11.0229   21.9948 O   0  0  0  0  0  0  0  0  0  0  0  0
  1  8  4  0
  1 12  4  0
  2  9  1  0
  2 11  4  0
  2 25  4  0
  3 12  4  0
  3 14  1  0
  3 23  4  0
  4 13  4  0
  4 21  4  0
  4 24  1  0
  5  8  4  0
  5 23  4  0
  6 18  2  0
  7 15  4  0
  7 16  1  0
  7 27  4  0
  8 18  1  0
 10 18  1  0
 10 20  1  0
 11 15  4  0
 11 26  1  0
 13 22  4  0
 16 19  1  0
 16 20  2  0
 17 19  4  0
 17 21  4  0
 19 22  4  0
 20 28  1  0
 25 27  4  0
M  END
$$$$

 Created by Python create_sdf_string function

 28 30  0  0  0  0  0  0  0  0999 V2000
   11.4592   11.2893   18.7941 C   0  0  0  0  0  0  0  0  0  0  0  0
    3.4202    7.9009   20.3866 C   0  0  0  0  0  0  0  0  0  0  0  0
   13.5280   10.3522   19.3586 C   0  0  0  0  0  0  0  0  0  0  0  0
    9.6923    5.6468   22.7891 C   0  0  0  0  0  0  0  0  0  0  0  0
   11.7756   10.2554   20.8841 N   0  0  0  0  0  0  0  0  0  0  0  0
    8.9876   11.9370   19.8757 O   0  0  0  0  0  0  0  0  0  0  0  0
    6.0167    8.4478   21.1089 C   0  0  0  0  0  0  0  0  0  0  0  0
   11.0002   10.8890   20.0262 C   0  0  0  0  0  0  0  0  0  0  0  0
    2.1721    7.7393   20.0315 O   0  0  0  0  0  0  0  0  0  0  0  0
    9.1107   10.3880   21.3769 N   0  0  0  0  0  0  0  0  0  0  0  0
    3.9102    9.2008   20.3124 C   0  0  0  0  0  0  0  0  0  0  0  0
   12.7292   10.9960   18.4597 C   0  0  0  0  0  0  0  0  0  0  0  0
    9.3798    6.6793   23.6625 C   0  0  0  0  0  0  0  0  0  0  0  0
   14.7425   10.0739   19.0802 O   0  0  0  0  0  0  0  0  0  0  0  0
    5.1894    9.4673   20.7118 C   0  0  0  0  0  0  0  0  0  0  0  0
    7.3773    8.8224   21.4870 C   0  0  0  0  0  0  0  0  0  0  0  0
    8.4391    6.6439   21.0235 C   0  0  0  0  0  0  0  0  0  0  0  0
    9.6494   11.1353   20.4167 C   0  0  0  0  0  0  0  0  0  0  0  0
    8.1431    7.6829   21.9046 C   0  0  0  0  0  0  0  0  0  0  0  0
    7.7796   10.1314   21.5115 N   0  0  0  0  0  0  0  0  0  0  0  0
    9.2768    5.6183   21.4437 C   0  0  0  0  0  0  0  0  0  0  0  0
    8.6315    7.7322   23.1768 C   0  0  0  0  0  0  0  0  0  0  0  0
   13.0537    9.9821   20.5781 C   0  0  0  0  0  0  0  0  0  0  0  0
   10.3850    4.6575   23.2386 O   0  0  0  0  0  0  0  0  0  0  0  0
    4.2069    6.8450   20.7994 C   0  0  0  0  0  0  0  0  0  0  0  0
    3.0726   10.1043   19.8522 O   0  0  0  0  0  0  0  0  0  0  0  0
    5.5057    7.1196   21.1155 C   0  0  0  0  0  0  0  0  0  0  0  0
    7.0367   11.0229   21.9948 O   0  0  0  0  0  0  0  0  0  0  0  0
  1  8  4  0
  1 12  4  0
  2  9  1  0
  2 11  4  0
  2 25  4  0
  3 12  4  0
  3 14  1  0
  3 23  4  0
  4 13  4  0
  4 21  4  0
  4 24  1  0
  5  8  4  0
  5 23  4  0
  6 18  2  0
  7 15  4  0
  7 16  1  0
  7 27  4  0
  8 18  1  0
 10 18  1  0
 10 20  1  0
 11 15  4  0
 11 26  1  0
 13 22  4  0
 16 19  1  0
 16 20  2  0
 17 19  4  0
 17 21  4  0
 19 22  4  0
 20 28  1  0
 25 27  4  0
M  END
$$$$

 Created by Python create_sdf_string function

 28 30  0  0  0  0  0  0  0  0999 V2000
   11.4592   11.2893   18.7941 C   0  0  0  0  0  0  0  0  0  0  0  0
    3.4202    7.9009   20.3866 C   0  0  0  0  0  0  0  0  0  0  0  0
   13.5280   10.3522   19.3586 C   0  0  0  0  0  0  0  0  0  0  0  0
    9.6923    5.6468   22.7891 C   0  0  0  0  0  0  0  0  0  0  0  0
   11.7756   10.2554   20.8841 N   0  0  0  0  0  0  0  0  0  0  0  0
    8.9876   11.9370   19.8757 O   0  0  0  0  0  0  0  0  0  0  0  0
    6.0167    8.4478   21.1089 C   0  0  0  0  0  0  0  0  0  0  0  0
   11.0002   10.8890   20.0262 C   0  0  0  0  0  0  0  0  0  0  0  0
    2.1721    7.7393   20.0315 O   0  0  0  0  0  0  0  0  0  0  0  0
    9.1107   10.3880   21.3769 N   0  0  0  0  0  0  0  0  0  0  0  0
    3.9102    9.2008   20.3124 C   0  0  0  0  0  0  0  0  0  0  0  0
   12.7292   10.9960   18.4597 C   0  0  0  0  0  0  0  0  0  0  0  0
    9.3798    6.6793   23.6625 C   0  0  0  0  0  0  0  0  0  0  0  0
   14.7425   10.0739   19.0802 O   0  0  0  0  0  0  0  0  0  0  0  0
    5.1894    9.4673   20.7118 C   0  0  0  0  0  0  0  0  0  0  0  0
    7.3773    8.8224   21.4870 C   0  0  0  0  0  0  0  0  0  0  0  0
    8.4391    6.6439   21.0235 C   0  0  0  0  0  0  0  0  0  0  0  0
    9.6494   11.1353   20.4167 C   0  0  0  0  0  0  0  0  0  0  0  0
    8.1431    7.6829   21.9046 C   0  0  0  0  0  0  0  0  0  0  0  0
    7.7796   10.1314   21.5115 N   0  0  0  0  0  0  0  0  0  0  0  0
    9.2768    5.6183   21.4437 C   0  0  0  0  0  0  0  0  0  0  0  0
    8.6315    7.7322   23.1768 C   0  0  0  0  0  0  0  0  0  0  0  0
   13.0537    9.9821   20.5781 C   0  0  0  0  0  0  0  0  0  0  0  0
   10.3850    4.6575   23.2386 O   0  0  0  0  0  0  0  0  0  0  0  0
    4.2069    6.8450   20.7994 C   0  0  0  0  0  0  0  0  0  0  0  0
    3.0726   10.1043   19.8522 O   0  0  0  0  0  0  0  0  0  0  0  0
    5.5057    7.1196   21.1155 C   0  0  0  0  0  0  0  0  0  0  0  0
    7.0367   11.0229   21.9948 O   0  0  0  0  0  0  0  0  0  0  0  0
  1  8  4  0
  1 12  4  0
  2  9  1  0
  2 11  4  0
  2 25  4  0
  3 12  4  0
  3 14  1  0
  3 23  4  0
  4 13  4  0
  4 21  4  0
  4 24  1  0
  5  8  4  0
  5 23  4  0
  6 18  2  0
  7 15  4  0
  7 16  1  0
  7 27  4  0
  8 18  1  0
 10 18  1  0
 10 20  1  0
 11 15  4  0
 11 26  1  0
 13 22  4  0
 16 19  1  0
 16 20  2  0
 17 19  4  0
 17 21  4  0
 19 22  4  0
 20 28  1  0
 25 27  4  0
M  END
$$$$

 Created by Python create_sdf_string function

 28 30  0  0  0  0  0  0  0  0999 V2000
   11.4592   11.2893   18.7941 C   0  0  0  0  0  0  0  0  0  0  0  0
    3.4202    7.9009   20.3866 C   0  0  0  0  0  0  0  0  0  0  0  0
   13.5280   10.3522   19.3586 C   0  0  0  0  0  0  0  0  0  0  0  0
    9.6923    5.6468   22.7891 C   0  0  0  0  0  0  0  0  0  0  0  0
   11.7756   10.2554   20.8841 N   0  0  0  0  0  0  0  0  0  0  0  0
    8.9876   11.9370   19.8757 O   0  0  0  0  0  0  0  0  0  0  0  0
    6.0167    8.4478   21.1089 C   0  0  0  0  0  0  0  0  0  0  0  0
   11.0002   10.8890   20.0262 C   0  0  0  0  0  0  0  0  0  0  0  0
    2.1721    7.7393   20.0315 O   0  0  0  0  0  0  0  0  0  0  0  0
    9.1107   10.3880   21.3769 N   0  0  0  0  0  0  0  0  0  0  0  0
    3.9102    9.2008   20.3124 C   0  0  0  0  0  0  0  0  0  0  0  0
   12.7292   10.9960   18.4597 C   0  0  0  0  0  0  0  0  0  0  0  0
    9.3798    6.6793   23.6625 C   0  0  0  0  0  0  0  0  0  0  0  0
   14.7425   10.0739   19.0802 O   0  0  0  0  0  0  0  0  0  0  0  0
    5.1894    9.4673   20.7118 C   0  0  0  0  0  0  0  0  0  0  0  0
    7.3773    8.8224   21.4870 C   0  0  0  0  0  0  0  0  0  0  0  0
    8.4391    6.6439   21.0235 C   0  0  0  0  0  0  0  0  0  0  0  0
    9.6494   11.1353   20.4167 C   0  0  0  0  0  0  0  0  0  0  0  0
    8.1431    7.6829   21.9046 C   0  0  0  0  0  0  0  0  0  0  0  0
    7.7796   10.1314   21.5115 N   0  0  0  0  0  0  0  0  0  0  0  0
    9.2768    5.6183   21.4437 C   0  0  0  0  0  0  0  0  0  0  0  0
    8.6315    7.7322   23.1768 C   0  0  0  0  0  0  0  0  0  0  0  0
   13.0537    9.9821   20.5781 C   0  0  0  0  0  0  0  0  0  0  0  0
   10.3850    4.6575   23.2386 O   0  0  0  0  0  0  0  0  0  0  0  0
    4.2069    6.8450   20.7994 C   0  0  0  0  0  0  0  0  0  0  0  0
    3.0726   10.1043   19.8522 O   0  0  0  0  0  0  0  0  0  0  0  0
    5.5057    7.1196   21.1155 C   0  0  0  0  0  0  0  0  0  0  0  0
    7.0367   11.0229   21.9948 O   0  0  0  0  0  0  0  0  0  0  0  0
  1  8  4  0
  1 12  4  0
  2  9  1  0
  2 11  4  0
  2 25  4  0
  3 12  4  0
  3 14  1  0
  3 23  4  0
  4 13  4  0
  4 21  4  0
  4 24  1  0
  5  8  4  0
  5 23  4  0
  6 18  2  0
  7 15  4  0
  7 16  1  0
  7 27  4  0
  8 18  1  0
 10 18  1  0
 10 20  1  0
 11 15  4  0
 11 26  1  0
 13 22  4  0
 16 19  1  0
 16 20  2  0
 17 19  4  0
 17 21  4  0
 19 22  4  0
 20 28  1  0
 25 27  4  0
M  END
$$$$

 Created by Python create_sdf_string function

 28 30  0  0  0  0  0  0  0  0999 V2000
   11.4592   11.2893   18.7941 C   0  0  0  0  0  0  0  0  0  0  0  0
    3.4202    7.9009   20.3866 C   0  0  0  0  0  0  0  0  0  0  0  0
   13.5280   10.3522   19.3586 C   0  0  0  0  0  0  0  0  0  0  0  0
    9.6923    5.6468   22.7891 C   0  0  0  0  0  0  0  0  0  0  0  0
   11.7756   10.2554   20.8841 N   0  0  0  0  0  0  0  0  0  0  0  0
    8.9876   11.9370   19.8757 O   0  0  0  0  0  0  0  0  0  0  0  0
    6.0167    8.4478   21.1089 C   0  0  0  0  0  0  0  0  0  0  0  0
   11.0002   10.8890   20.0262 C   0  0  0  0  0  0  0  0  0  0  0  0
    2.1721    7.7393   20.0315 O   0  0  0  0  0  0  0  0  0  0  0  0
    9.1107   10.3880   21.3769 N   0  0  0  0  0  0  0  0  0  0  0  0
    3.9102    9.2008   20.3124 C   0  0  0  0  0  0  0  0  0  0  0  0
   12.7292   10.9960   18.4597 C   0  0  0  0  0  0  0  0  0  0  0  0
    9.3798    6.6793   23.6625 C   0  0  0  0  0  0  0  0  0  0  0  0
   14.7425   10.0739   19.0802 O   0  0  0  0  0  0  0  0  0  0  0  0
    5.1894    9.4673   20.7118 C   0  0  0  0  0  0  0  0  0  0  0  0
    7.3773    8.8224   21.4870 C   0  0  0  0  0  0  0  0  0  0  0  0
    8.4391    6.6439   21.0235 C   0  0  0  0  0  0  0  0  0  0  0  0
    9.6494   11.1353   20.4167 C   0  0  0  0  0  0  0  0  0  0  0  0
    8.1431    7.6829   21.9046 C   0  0  0  0  0  0  0  0  0  0  0  0
    7.7796   10.1314   21.5115 N   0  0  0  0  0  0  0  0  0  0  0  0
    9.2768    5.6183   21.4437 C   0  0  0  0  0  0  0  0  0  0  0  0
    8.6315    7.7322   23.1768 C   0  0  0  0  0  0  0  0  0  0  0  0
   13.0537    9.9821   20.5781 C   0  0  0  0  0  0  0  0  0  0  0  0
   10.3850    4.6575   23.2386 O   0  0  0  0  0  0  0  0  0  0  0  0
    4.2069    6.8450   20.7994 C   0  0  0  0  0  0  0  0  0  0  0  0
    3.0726   10.1043   19.8522 O   0  0  0  0  0  0  0  0  0  0  0  0
    5.5057    7.1196   21.1155 C   0  0  0  0  0  0  0  0  0  0  0  0
    7.0367   11.0229   21.9948 O   0  0  0  0  0  0  0  0  0  0  0  0
  1  8  4  0
  1 12  4  0
  2  9  1  0
  2 11  4  0
  2 25  4  0
  3 12  4  0
  3 14  1  0
  3 23  4  0
  4 13  4  0
  4 21  4  0
  4 24  1  0
  5  8  4  0
  5 23  4  0
  6 18  2  0
  7 15  4  0
  7 16  1  0
  7 27  4  0
  8 18  1  0
 10 18  1  0
 10 20  1  0
 11 15  4  0
 11 26  1  0
 13 22  4  0
 16 19  1  0
 16 20  2  0
 17 19  4  0
 17 21  4  0
 19 22  4  0
 20 28  1  0
 25 27  4  0
M  END
$$$$

 Created by Python create_sdf_string function

 28 30  0  0  0  0  0  0  0  0999 V2000
   11.4592   11.2893   18.7941 C   0  0  0  0  0  0  0  0  0  0  0  0
    3.4202    7.9009   20.3866 C   0  0  0  0  0  0  0  0  0  0  0  0
   13.5280   10.3522   19.3586 C   0  0  0  0  0  0  0  0  0  0  0  0
    9.6923    5.6468   22.7891 C   0  0  0  0  0  0  0  0  0  0  0  0
   11.7756   10.2554   20.8841 N   0  0  0  0  0  0  0  0  0  0  0  0
    8.9876   11.9370   19.8757 O   0  0  0  0  0  0  0  0  0  0  0  0
    6.0167    8.4478   21.1089 C   0  0  0  0  0  0  0  0  0  0  0  0
   11.0002   10.8890   20.0262 C   0  0  0  0  0  0  0  0  0  0  0  0
    2.1721    7.7393   20.0315 O   0  0  0  0  0  0  0  0  0  0  0  0
    9.1107   10.3880   21.3769 N   0  0  0  0  0  0  0  0  0  0  0  0
    3.9102    9.2008   20.3124 C   0  0  0  0  0  0  0  0  0  0  0  0
   12.7292   10.9960   18.4597 C   0  0  0  0  0  0  0  0  0  0  0  0
    9.3798    6.6793   23.6625 C   0  0  0  0  0  0  0  0  0  0  0  0
   14.7425   10.0739   19.0802 O   0  0  0  0  0  0  0  0  0  0  0  0
    5.1894    9.4673   20.7118 C   0  0  0  0  0  0  0  0  0  0  0  0
    7.3773    8.8224   21.4870 C   0  0  0  0  0  0  0  0  0  0  0  0
    8.4391    6.6439   21.0235 C   0  0  0  0  0  0  0  0  0  0  0  0
    9.6494   11.1353   20.4167 C   0  0  0  0  0  0  0  0  0  0  0  0
    8.1431    7.6829   21.9046 C   0  0  0  0  0  0  0  0  0  0  0  0
    7.7796   10.1314   21.5115 N   0  0  0  0  0  0  0  0  0  0  0  0
    9.2768    5.6183   21.4437 C   0  0  0  0  0  0  0  0  0  0  0  0
    8.6315    7.7322   23.1768 C   0  0  0  0  0  0  0  0  0  0  0  0
   13.0537    9.9821   20.5781 C   0  0  0  0  0  0  0  0  0  0  0  0
   10.3850    4.6575   23.2386 O   0  0  0  0  0  0  0  0  0  0  0  0
    4.2069    6.8450   20.7994 C   0  0  0  0  0  0  0  0  0  0  0  0
    3.0726   10.1043   19.8522 O   0  0  0  0  0  0  0  0  0  0  0  0
    5.5057    7.1196   21.1155 C   0  0  0  0  0  0  0  0  0  0  0  0
    7.0367   11.0229   21.9948 O   0  0  0  0  0  0  0  0  0  0  0  0
  1  8  4  0
  1 12  4  0
  2  9  1  0
  2 11  4  0
  2 25  4  0
  3 12  4  0
  3 14  1  0
  3 23  4  0
  4 13  4  0
  4 21  4  0
  4 24  1  0
  5  8  4  0
  5 23  4  0
  6 18  2  0
  7 15  4  0
  7 16  1  0
  7 27  4  0
  8 18  1  0
 10 18  1  0
 10 20  1  0
 11 15  4  0
 11 26  1  0
 13 22  4  0
 16 19  1  0
 16 20  2  0
 17 19  4  0
 17 21  4  0
 19 22  4  0
 20 28  1  0
 25 27  4  0
M  END
$$$$

 Created by Python create_sdf_string function

 28 30  0  0  0  0  0  0  0  0999 V2000
   11.4592   11.2893   18.7941 C   0  0  0  0  0  0  0  0  0  0  0  0
    3.4202    7.9009   20.3866 C   0  0  0  0  0  0  0  0  0  0  0  0
   13.5280   10.3522   19.3586 C   0  0  0  0  0  0  0  0  0  0  0  0
    9.6923    5.6468   22.7891 C   0  0  0  0  0  0  0  0  0  0  0  0
   11.7756   10.2554   20.8841 N   0  0  0  0  0  0  0  0  0  0  0  0
    8.9876   11.9370   19.8757 O   0  0  0  0  0  0  0  0  0  0  0  0
    6.0167    8.4478   21.1089 C   0  0  0  0  0  0  0  0  0  0  0  0
   11.0002   10.8890   20.0262 C   0  0  0  0  0  0  0  0  0  0  0  0
    2.1721    7.7393   20.0315 O   0  0  0  0  0  0  0  0  0  0  0  0
    9.1107   10.3880   21.3769 N   0  0  0  0  0  0  0  0  0  0  0  0
    3.9102    9.2008   20.3124 C   0  0  0  0  0  0  0  0  0  0  0  0
   12.7292   10.9960   18.4597 C   0  0  0  0  0  0  0  0  0  0  0  0
    9.3798    6.6793   23.6625 C   0  0  0  0  0  0  0  0  0  0  0  0
   14.7425   10.0739   19.0802 O   0  0  0  0  0  0  0  0  0  0  0  0
    5.1894    9.4673   20.7118 C   0  0  0  0  0  0  0  0  0  0  0  0
    7.3773    8.8224   21.4870 C   0  0  0  0  0  0  0  0  0  0  0  0
    8.4391    6.6439   21.0235 C   0  0  0  0  0  0  0  0  0  0  0  0
    9.6494   11.1353   20.4167 C   0  0  0  0  0  0  0  0  0  0  0  0
    8.1431    7.6829   21.9046 C   0  0  0  0  0  0  0  0  0  0  0  0
    7.7796   10.1314   21.5115 N   0  0  0  0  0  0  0  0  0  0  0  0
    9.2768    5.6183   21.4437 C   0  0  0  0  0  0  0  0  0  0  0  0
    8.6315    7.7322   23.1768 C   0  0  0  0  0  0  0  0  0  0  0  0
   13.0537    9.9821   20.5781 C   0  0  0  0  0  0  0  0  0  0  0  0
   10.3850    4.6575   23.2386 O   0  0  0  0  0  0  0  0  0  0  0  0
    4.2069    6.8450   20.7994 C   0  0  0  0  0  0  0  0  0  0  0  0
    3.0726   10.1043   19.8522 O   0  0  0  0  0  0  0  0  0  0  0  0
    5.5057    7.1196   21.1155 C   0  0  0  0  0  0  0  0  0  0  0  0
    7.0367   11.0229   21.9948 O   0  0  0  0  0  0  0  0  0  0  0  0
  1  8  4  0
  1 12  4  0
  2  9  1  0
  2 11  4  0
  2 25  4  0
  3 12  4  0
  3 14  1  0
  3 23  4  0
  4 13  4  0
  4 21  4  0
  4 24  1  0
  5  8  4  0
  5 23  4  0
  6 18  2  0
  7 15  4  0
  7 16  1  0
  7 27  4  0
  8 18  1  0
 10 18  1  0
 10 20  1  0
 11 15  4  0
 11 26  1  0
 13 22  4  0
 16 19  1  0
 16 20  2  0
 17 19  4  0
 17 21  4  0
 19 22  4  0
 20 28  1  0
 25 27  4  0
M  END
$$$$

 Created by Python create_sdf_string function

 28 30  0  0  0  0  0  0  0  0999 V2000
   11.4592   11.2893   18.7941 C   0  0  0  0  0  0  0  0  0  0  0  0
    3.4202    7.9009   20.3866 C   0  0  0  0  0  0  0  0  0  0  0  0
   13.5280   10.3522   19.3586 C   0  0  0  0  0  0  0  0  0  0  0  0
    9.6923    5.6468   22.7891 C   0  0  0  0  0  0  0  0  0  0  0  0
   11.7756   10.2554   20.8841 N   0  0  0  0  0  0  0  0  0  0  0  0
    8.9876   11.9370   19.8757 O   0  0  0  0  0  0  0  0  0  0  0  0
    6.0167    8.4478   21.1089 C   0  0  0  0  0  0  0  0  0  0  0  0
   11.0002   10.8890   20.0262 C   0  0  0  0  0  0  0  0  0  0  0  0
    2.1721    7.7393   20.0315 O   0  0  0  0  0  0  0  0  0  0  0  0
    9.1107   10.3880   21.3769 N   0  0  0  0  0  0  0  0  0  0  0  0
    3.9102    9.2008   20.3124 C   0  0  0  0  0  0  0  0  0  0  0  0
   12.7292   10.9960   18.4597 C   0  0  0  0  0  0  0  0  0  0  0  0
    9.3798    6.6793   23.6625 C   0  0  0  0  0  0  0  0  0  0  0  0
   14.7425   10.0739   19.0802 O   0  0  0  0  0  0  0  0  0  0  0  0
    5.1894    9.4673   20.7118 C   0  0  0  0  0  0  0  0  0  0  0  0
    7.3773    8.8224   21.4870 C   0  0  0  0  0  0  0  0  0  0  0  0
    8.4391    6.6439   21.0235 C   0  0  0  0  0  0  0  0  0  0  0  0
    9.6494   11.1353   20.4167 C   0  0  0  0  0  0  0  0  0  0  0  0
    8.1431    7.6829   21.9046 C   0  0  0  0  0  0  0  0  0  0  0  0
    7.7796   10.1314   21.5115 N   0  0  0  0  0  0  0  0  0  0  0  0
    9.2768    5.6183   21.4437 C   0  0  0  0  0  0  0  0  0  0  0  0
    8.6315    7.7322   23.1768 C   0  0  0  0  0  0  0  0  0  0  0  0
   13.0537    9.9821   20.5781 C   0  0  0  0  0  0  0  0  0  0  0  0
   10.3850    4.6575   23.2386 O   0  0  0  0  0  0  0  0  0  0  0  0
    4.2069    6.8450   20.7994 C   0  0  0  0  0  0  0  0  0  0  0  0
    3.0726   10.1043   19.8522 O   0  0  0  0  0  0  0  0  0  0  0  0
    5.5057    7.1196   21.1155 C   0  0  0  0  0  0  0  0  0  0  0  0
    7.0367   11.0229   21.9948 O   0  0  0  0  0  0  0  0  0  0  0  0
  1  8  4  0
  1 12  4  0
  2  9  1  0
  2 11  4  0
  2 25  4  0
  3 12  4  0
  3 14  1  0
  3 23  4  0
  4 13  4  0
  4 21  4  0
  4 24  1  0
  5  8  4  0
  5 23  4  0
  6 18  2  0
  7 15  4  0
  7 16  1  0
  7 27  4  0
  8 18  1  0
 10 18  1  0
 10 20  1  0
 11 15  4  0
 11 26  1  0
 13 22  4  0
 16 19  1  0
 16 20  2  0
 17 19  4  0
 17 21  4  0
 19 22  4  0
 20 28  1  0
 25 27  4  0
M  END
$$$$

 Created by Python create_sdf_string function

 28 30  0  0  0  0  0  0  0  0999 V2000
   11.4592   11.2893   18.7941 C   0  0  0  0  0  0  0  0  0  0  0  0
    3.4202    7.9009   20.3866 C   0  0  0  0  0  0  0  0  0  0  0  0
   13.5280   10.3522   19.3586 C   0  0  0  0  0  0  0  0  0  0  0  0
    9.6923    5.6468   22.7891 C   0  0  0  0  0  0  0  0  0  0  0  0
   11.7756   10.2554   20.8841 N   0  0  0  0  0  0  0  0  0  0  0  0
    8.9876   11.9370   19.8757 O   0  0  0  0  0  0  0  0  0  0  0  0
    6.0167    8.4478   21.1089 C   0  0  0  0  0  0  0  0  0  0  0  0
   11.0002   10.8890   20.0262 C   0  0  0  0  0  0  0  0  0  0  0  0
    2.1721    7.7393   20.0315 O   0  0  0  0  0  0  0  0  0  0  0  0
    9.1107   10.3880   21.3769 N   0  0  0  0  0  0  0  0  0  0  0  0
    3.9102    9.2008   20.3124 C   0  0  0  0  0  0  0  0  0  0  0  0
   12.7292   10.9960   18.4597 C   0  0  0  0  0  0  0  0  0  0  0  0
    9.3798    6.6793   23.6625 C   0  0  0  0  0  0  0  0  0  0  0  0
   14.7425   10.0739   19.0802 O   0  0  0  0  0  0  0  0  0  0  0  0
    5.1894    9.4673   20.7118 C   0  0  0  0  0  0  0  0  0  0  0  0
    7.3773    8.8224   21.4870 C   0  0  0  0  0  0  0  0  0  0  0  0
    8.4391    6.6439   21.0235 C   0  0  0  0  0  0  0  0  0  0  0  0
    9.6494   11.1353   20.4167 C   0  0  0  0  0  0  0  0  0  0  0  0
    8.1431    7.6829   21.9046 C   0  0  0  0  0  0  0  0  0  0  0  0
    7.7796   10.1314   21.5115 N   0  0  0  0  0  0  0  0  0  0  0  0
    9.2768    5.6183   21.4437 C   0  0  0  0  0  0  0  0  0  0  0  0
    8.6315    7.7322   23.1768 C   0  0  0  0  0  0  0  0  0  0  0  0
   13.0537    9.9821   20.5781 C   0  0  0  0  0  0  0  0  0  0  0  0
   10.3850    4.6575   23.2386 O   0  0  0  0  0  0  0  0  0  0  0  0
    4.2069    6.8450   20.7994 C   0  0  0  0  0  0  0  0  0  0  0  0
    3.0726   10.1043   19.8522 O   0  0  0  0  0  0  0  0  0  0  0  0
    5.5057    7.1196   21.1155 C   0  0  0  0  0  0  0  0  0  0  0  0
    7.0367   11.0229   21.9948 O   0  0  0  0  0  0  0  0  0  0  0  0
  1  8  4  0
  1 12  4  0
  2  9  1  0
  2 11  4  0
  2 25  4  0
  3 12  4  0
  3 14  1  0
  3 23  4  0
  4 13  4  0
  4 21  4  0
  4 24  1  0
  5  8  4  0
  5 23  4  0
  6 18  2  0
  7 15  4  0
  7 16  1  0
  7 27  4  0
  8 18  1  0
 10 18  1  0
 10 20  1  0
 11 15  4  0
 11 26  1  0
 13 22  4  0
 16 19  1  0
 16 20  2  0
 17 19  4  0
 17 21  4  0
 19 22  4  0
 20 28  1  0
 25 27  4  0
M  END
$$$$

 Created by Python create_sdf_string function

 28 30  0  0  0  0  0  0  0  0999 V2000
   11.4592   11.2893   18.7941 C   0  0  0  0  0  0  0  0  0  0  0  0
    3.4202    7.9009   20.3866 C   0  0  0  0  0  0  0  0  0  0  0  0
   13.5280   10.3522   19.3586 C   0  0  0  0  0  0  0  0  0  0  0  0
    9.6923    5.6468   22.7891 C   0  0  0  0  0  0  0  0  0  0  0  0
   11.7756   10.2554   20.8841 N   0  0  0  0  0  0  0  0  0  0  0  0
    8.9876   11.9370   19.8757 O   0  0  0  0  0  0  0  0  0  0  0  0
    6.0167    8.4478   21.1089 C   0  0  0  0  0  0  0  0  0  0  0  0
   11.0002   10.8890   20.0262 C   0  0  0  0  0  0  0  0  0  0  0  0
    2.1721    7.7393   20.0315 O   0  0  0  0  0  0  0  0  0  0  0  0
    9.1107   10.3880   21.3769 N   0  0  0  0  0  0  0  0  0  0  0  0
    3.9102    9.2008   20.3124 C   0  0  0  0  0  0  0  0  0  0  0  0
   12.7292   10.9960   18.4597 C   0  0  0  0  0  0  0  0  0  0  0  0
    9.3798    6.6793   23.6625 C   0  0  0  0  0  0  0  0  0  0  0  0
   14.7425   10.0739   19.0802 O   0  0  0  0  0  0  0  0  0  0  0  0
    5.1894    9.4673   20.7118 C   0  0  0  0  0  0  0  0  0  0  0  0
    7.3773    8.8224   21.4870 C   0  0  0  0  0  0  0  0  0  0  0  0
    8.4391    6.6439   21.0235 C   0  0  0  0  0  0  0  0  0  0  0  0
    9.6494   11.1353   20.4167 C   0  0  0  0  0  0  0  0  0  0  0  0
    8.1431    7.6829   21.9046 C   0  0  0  0  0  0  0  0  0  0  0  0
    7.7796   10.1314   21.5115 N   0  0  0  0  0  0  0  0  0  0  0  0
    9.2768    5.6183   21.4437 C   0  0  0  0  0  0  0  0  0  0  0  0
    8.6315    7.7322   23.1768 C   0  0  0  0  0  0  0  0  0  0  0  0
   13.0537    9.9821   20.5781 C   0  0  0  0  0  0  0  0  0  0  0  0
   10.3850    4.6575   23.2386 O   0  0  0  0  0  0  0  0  0  0  0  0
    4.2069    6.8450   20.7994 C   0  0  0  0  0  0  0  0  0  0  0  0
    3.0726   10.1043   19.8522 O   0  0  0  0  0  0  0  0  0  0  0  0
    5.5057    7.1196   21.1155 C   0  0  0  0  0  0  0  0  0  0  0  0
    7.0367   11.0229   21.9948 O   0  0  0  0  0  0  0  0  0  0  0  0
  1  8  4  0
  1 12  4  0
  2  9  1  0
  2 11  4  0
  2 25  4  0
  3 12  4  0
  3 14  1  0
  3 23  4  0
  4 13  4  0
  4 21  4  0
  4 24  1  0
  5  8  4  0
  5 23  4  0
  6 18  2  0
  7 15  4  0
  7 16  1  0
  7 27  4  0
  8 18  1  0
 10 18  1  0
 10 20  1  0
 11 15  4  0
 11 26  1  0
 13 22  4  0
 16 19  1  0
 16 20  2  0
 17 19  4  0
 17 21  4  0
 19 22  4  0
 20 28  1  0
 25 27  4  0
M  END
$$$$

 Created by Python create_sdf_string function

 28 30  0  0  0  0  0  0  0  0999 V2000
   11.4592   11.2893   18.7941 C   0  0  0  0  0  0  0  0  0  0  0  0
    3.4202    7.9009   20.3866 C   0  0  0  0  0  0  0  0  0  0  0  0
   13.5280   10.3522   19.3586 C   0  0  0  0  0  0  0  0  0  0  0  0
    9.6923    5.6468   22.7891 C   0  0  0  0  0  0  0  0  0  0  0  0
   11.7756   10.2554   20.8841 N   0  0  0  0  0  0  0  0  0  0  0  0
    8.9876   11.9370   19.8757 O   0  0  0  0  0  0  0  0  0  0  0  0
    6.0167    8.4478   21.1089 C   0  0  0  0  0  0  0  0  0  0  0  0
   11.0002   10.8890   20.0262 C   0  0  0  0  0  0  0  0  0  0  0  0
    2.1721    7.7393   20.0315 O   0  0  0  0  0  0  0  0  0  0  0  0
    9.1107   10.3880   21.3769 N   0  0  0  0  0  0  0  0  0  0  0  0
    3.9102    9.2008   20.3124 C   0  0  0  0  0  0  0  0  0  0  0  0
   12.7292   10.9960   18.4597 C   0  0  0  0  0  0  0  0  0  0  0  0
    9.3798    6.6793   23.6625 C   0  0  0  0  0  0  0  0  0  0  0  0
   14.7425   10.0739   19.0802 O   0  0  0  0  0  0  0  0  0  0  0  0
    5.1894    9.4673   20.7118 C   0  0  0  0  0  0  0  0  0  0  0  0
    7.3773    8.8224   21.4870 C   0  0  0  0  0  0  0  0  0  0  0  0
    8.4391    6.6439   21.0235 C   0  0  0  0  0  0  0  0  0  0  0  0
    9.6494   11.1353   20.4167 C   0  0  0  0  0  0  0  0  0  0  0  0
    8.1431    7.6829   21.9046 C   0  0  0  0  0  0  0  0  0  0  0  0
    7.7796   10.1314   21.5115 N   0  0  0  0  0  0  0  0  0  0  0  0
    9.2768    5.6183   21.4437 C   0  0  0  0  0  0  0  0  0  0  0  0
    8.6315    7.7322   23.1768 C   0  0  0  0  0  0  0  0  0  0  0  0
   13.0537    9.9821   20.5781 C   0  0  0  0  0  0  0  0  0  0  0  0
   10.3850    4.6575   23.2386 O   0  0  0  0  0  0  0  0  0  0  0  0
    4.2069    6.8450   20.7994 C   0  0  0  0  0  0  0  0  0  0  0  0
    3.0726   10.1043   19.8522 O   0  0  0  0  0  0  0  0  0  0  0  0
    5.5057    7.1196   21.1155 C   0  0  0  0  0  0  0  0  0  0  0  0
    7.0367   11.0229   21.9948 O   0  0  0  0  0  0  0  0  0  0  0  0
  1  8  4  0
  1 12  4  0
  2  9  1  0
  2 11  4  0
  2 25  4  0
  3 12  4  0
  3 14  1  0
  3 23  4  0
  4 13  4  0
  4 21  4  0
  4 24  1  0
  5  8  4  0
  5 23  4  0
  6 18  2  0
  7 15  4  0
  7 16  1  0
  7 27  4  0
  8 18  1  0
 10 18  1  0
 10 20  1  0
 11 15  4  0
 11 26  1  0
 13 22  4  0
 16 19  1  0
 16 20  2  0
 17 19  4  0
 17 21  4  0
 19 22  4  0
 20 28  1  0
 25 27  4  0
M  END
$$$$

 Created by Python create_sdf_string function

 28 30  0  0  0  0  0  0  0  0999 V2000
   11.4592   11.2893   18.7941 C   0  0  0  0  0  0  0  0  0  0  0  0
    3.4202    7.9009   20.3866 C   0  0  0  0  0  0  0  0  0  0  0  0
   13.5280   10.3522   19.3586 C   0  0  0  0  0  0  0  0  0  0  0  0
    9.6923    5.6468   22.7891 C   0  0  0  0  0  0  0  0  0  0  0  0
   11.7756   10.2554   20.8841 N   0  0  0  0  0  0  0  0  0  0  0  0
    8.9876   11.9370   19.8757 O   0  0  0  0  0  0  0  0  0  0  0  0
    6.0167    8.4478   21.1089 C   0  0  0  0  0  0  0  0  0  0  0  0
   11.0002   10.8890   20.0262 C   0  0  0  0  0  0  0  0  0  0  0  0
    2.1721    7.7393   20.0315 O   0  0  0  0  0  0  0  0  0  0  0  0
    9.1107   10.3880   21.3769 N   0  0  0  0  0  0  0  0  0  0  0  0
    3.9102    9.2008   20.3124 C   0  0  0  0  0  0  0  0  0  0  0  0
   12.7292   10.9960   18.4597 C   0  0  0  0  0  0  0  0  0  0  0  0
    9.3798    6.6793   23.6625 C   0  0  0  0  0  0  0  0  0  0  0  0
   14.7425   10.0739   19.0802 O   0  0  0  0  0  0  0  0  0  0  0  0
    5.1894    9.4673   20.7118 C   0  0  0  0  0  0  0  0  0  0  0  0
    7.3773    8.8224   21.4870 C   0  0  0  0  0  0  0  0  0  0  0  0
    8.4391    6.6439   21.0235 C   0  0  0  0  0  0  0  0  0  0  0  0
    9.6494   11.1353   20.4167 C   0  0  0  0  0  0  0  0  0  0  0  0
    8.1431    7.6829   21.9046 C   0  0  0  0  0  0  0  0  0  0  0  0
    7.7796   10.1314   21.5115 N   0  0  0  0  0  0  0  0  0  0  0  0
    9.2768    5.6183   21.4437 C   0  0  0  0  0  0  0  0  0  0  0  0
    8.6315    7.7322   23.1768 C   0  0  0  0  0  0  0  0  0  0  0  0
   13.0537    9.9821   20.5781 C   0  0  0  0  0  0  0  0  0  0  0  0
   10.3850    4.6575   23.2386 O   0  0  0  0  0  0  0  0  0  0  0  0
    4.2069    6.8450   20.7994 C   0  0  0  0  0  0  0  0  0  0  0  0
    3.0726   10.1043   19.8522 O   0  0  0  0  0  0  0  0  0  0  0  0
    5.5057    7.1196   21.1155 C   0  0  0  0  0  0  0  0  0  0  0  0
    7.0367   11.0229   21.9948 O   0  0  0  0  0  0  0  0  0  0  0  0
  1  8  4  0
  1 12  4  0
  2  9  1  0
  2 11  4  0
  2 25  4  0
  3 12  4  0
  3 14  1  0
  3 23  4  0
  4 13  4  0
  4 21  4  0
  4 24  1  0
  5  8  4  0
  5 23  4  0
  6 18  2  0
  7 15  4  0
  7 16  1  0
  7 27  4  0
  8 18  1  0
 10 18  1  0
 10 20  1  0
 11 15  4  0
 11 26  1  0
 13 22  4  0
 16 19  1  0
 16 20  2  0
 17 19  4  0
 17 21  4  0
 19 22  4  0
 20 28  1  0
 25 27  4  0
M  END
$$$$

 Created by Python create_sdf_string function

 28 30  0  0  0  0  0  0  0  0999 V2000
   11.4592   11.2893   18.7941 C   0  0  0  0  0  0  0  0  0  0  0  0
    3.4202    7.9009   20.3866 C   0  0  0  0  0  0  0  0  0  0  0  0
   13.5280   10.3522   19.3586 C   0  0  0  0  0  0  0  0  0  0  0  0
    9.6923    5.6468   22.7891 C   0  0  0  0  0  0  0  0  0  0  0  0
   11.7756   10.2554   20.8841 N   0  0  0  0  0  0  0  0  0  0  0  0
    8.9876   11.9370   19.8757 O   0  0  0  0  0  0  0  0  0  0  0  0
    6.0167    8.4478   21.1089 C   0  0  0  0  0  0  0  0  0  0  0  0
   11.0002   10.8890   20.0262 C   0  0  0  0  0  0  0  0  0  0  0  0
    2.1721    7.7393   20.0315 O   0  0  0  0  0  0  0  0  0  0  0  0
    9.1107   10.3880   21.3769 N   0  0  0  0  0  0  0  0  0  0  0  0
    3.9102    9.2008   20.3124 C   0  0  0  0  0  0  0  0  0  0  0  0
   12.7292   10.9960   18.4597 C   0  0  0  0  0  0  0  0  0  0  0  0
    9.3798    6.6793   23.6625 C   0  0  0  0  0  0  0  0  0  0  0  0
   14.7425   10.0739   19.0802 O   0  0  0  0  0  0  0  0  0  0  0  0
    5.1894    9.4673   20.7118 C   0  0  0  0  0  0  0  0  0  0  0  0
    7.3773    8.8224   21.4870 C   0  0  0  0  0  0  0  0  0  0  0  0
    8.4391    6.6439   21.0235 C   0  0  0  0  0  0  0  0  0  0  0  0
    9.6494   11.1353   20.4167 C   0  0  0  0  0  0  0  0  0  0  0  0
    8.1431    7.6829   21.9046 C   0  0  0  0  0  0  0  0  0  0  0  0
    7.7796   10.1314   21.5115 N   0  0  0  0  0  0  0  0  0  0  0  0
    9.2768    5.6183   21.4437 C   0  0  0  0  0  0  0  0  0  0  0  0
    8.6315    7.7322   23.1768 C   0  0  0  0  0  0  0  0  0  0  0  0
   13.0537    9.9821   20.5781 C   0  0  0  0  0  0  0  0  0  0  0  0
   10.3850    4.6575   23.2386 O   0  0  0  0  0  0  0  0  0  0  0  0
    4.2069    6.8450   20.7994 C   0  0  0  0  0  0  0  0  0  0  0  0
    3.0726   10.1043   19.8522 O   0  0  0  0  0  0  0  0  0  0  0  0
    5.5057    7.1196   21.1155 C   0  0  0  0  0  0  0  0  0  0  0  0
    7.0367   11.0229   21.9948 O   0  0  0  0  0  0  0  0  0  0  0  0
  1  8  4  0
  1 12  4  0
  2  9  1  0
  2 11  4  0
  2 25  4  0
  3 12  4  0
  3 14  1  0
  3 23  4  0
  4 13  4  0
  4 21  4  0
  4 24  1  0
  5  8  4  0
  5 23  4  0
  6 18  2  0
  7 15  4  0
  7 16  1  0
  7 27  4  0
  8 18  1  0
 10 18  1  0
 10 20  1  0
 11 15  4  0
 11 26  1  0
 13 22  4  0
 16 19  1  0
 16 20  2  0
 17 19  4  0
 17 21  4  0
 19 22  4  0
 20 28  1  0
 25 27  4  0
M  END
$$$$

 Created by Python create_sdf_string function

 28 30  0  0  0  0  0  0  0  0999 V2000
   11.4592   11.2893   18.7941 C   0  0  0  0  0  0  0  0  0  0  0  0
    3.4202    7.9009   20.3866 C   0  0  0  0  0  0  0  0  0  0  0  0
   13.5280   10.3522   19.3586 C   0  0  0  0  0  0  0  0  0  0  0  0
    9.6923    5.6468   22.7891 C   0  0  0  0  0  0  0  0  0  0  0  0
   11.7756   10.2554   20.8841 N   0  0  0  0  0  0  0  0  0  0  0  0
    8.9876   11.9370   19.8757 O   0  0  0  0  0  0  0  0  0  0  0  0
    6.0167    8.4478   21.1089 C   0  0  0  0  0  0  0  0  0  0  0  0
   11.0002   10.8890   20.0262 C   0  0  0  0  0  0  0  0  0  0  0  0
    2.1721    7.7393   20.0315 O   0  0  0  0  0  0  0  0  0  0  0  0
    9.1107   10.3880   21.3769 N   0  0  0  0  0  0  0  0  0  0  0  0
    3.9102    9.2008   20.3124 C   0  0  0  0  0  0  0  0  0  0  0  0
   12.7292   10.9960   18.4597 C   0  0  0  0  0  0  0  0  0  0  0  0
    9.3798    6.6793   23.6625 C   0  0  0  0  0  0  0  0  0  0  0  0
   14.7425   10.0739   19.0802 O   0  0  0  0  0  0  0  0  0  0  0  0
    5.1894    9.4673   20.7118 C   0  0  0  0  0  0  0  0  0  0  0  0
    7.3773    8.8224   21.4870 C   0  0  0  0  0  0  0  0  0  0  0  0
    8.4391    6.6439   21.0235 C   0  0  0  0  0  0  0  0  0  0  0  0
    9.6494   11.1353   20.4167 C   0  0  0  0  0  0  0  0  0  0  0  0
    8.1431    7.6829   21.9046 C   0  0  0  0  0  0  0  0  0  0  0  0
    7.7796   10.1314   21.5115 N   0  0  0  0  0  0  0  0  0  0  0  0
    9.2768    5.6183   21.4437 C   0  0  0  0  0  0  0  0  0  0  0  0
    8.6315    7.7322   23.1768 C   0  0  0  0  0  0  0  0  0  0  0  0
   13.0537    9.9821   20.5781 C   0  0  0  0  0  0  0  0  0  0  0  0
   10.3850    4.6575   23.2386 O   0  0  0  0  0  0  0  0  0  0  0  0
    4.2069    6.8450   20.7994 C   0  0  0  0  0  0  0  0  0  0  0  0
    3.0726   10.1043   19.8522 O   0  0  0  0  0  0  0  0  0  0  0  0
    5.5057    7.1196   21.1155 C   0  0  0  0  0  0  0  0  0  0  0  0
    7.0367   11.0229   21.9948 O   0  0  0  0  0  0  0  0  0  0  0  0
  1  8  4  0
  1 12  4  0
  2  9  1  0
  2 11  4  0
  2 25  4  0
  3 12  4  0
  3 14  1  0
  3 23  4  0
  4 13  4  0
  4 21  4  0
  4 24  1  0
  5  8  4  0
  5 23  4  0
  6 18  2  0
  7 15  4  0
  7 16  1  0
  7 27  4  0
  8 18  1  0
 10 18  1  0
 10 20  1  0
 11 15  4  0
 11 26  1  0
 13 22  4  0
 16 19  1  0
 16 20  2  0
 17 19  4  0
 17 21  4  0
 19 22  4  0
 20 28  1  0
 25 27  4  0
M  END
$$$$

 Created by Python create_sdf_string function

 28 30  0  0  0  0  0  0  0  0999 V2000
   11.4592   11.2893   18.7941 C   0  0  0  0  0  0  0  0  0  0  0  0
    3.4202    7.9009   20.3866 C   0  0  0  0  0  0  0  0  0  0  0  0
   13.5280   10.3522   19.3586 C   0  0  0  0  0  0  0  0  0  0  0  0
    9.6923    5.6468   22.7891 C   0  0  0  0  0  0  0  0  0  0  0  0
   11.7756   10.2554   20.8841 N   0  0  0  0  0  0  0  0  0  0  0  0
    8.9876   11.9370   19.8757 O   0  0  0  0  0  0  0  0  0  0  0  0
    6.0167    8.4478   21.1089 C   0  0  0  0  0  0  0  0  0  0  0  0
   11.0002   10.8890   20.0262 C   0  0  0  0  0  0  0  0  0  0  0  0
    2.1721    7.7393   20.0315 O   0  0  0  0  0  0  0  0  0  0  0  0
    9.1107   10.3880   21.3769 N   0  0  0  0  0  0  0  0  0  0  0  0
    3.9102    9.2008   20.3124 C   0  0  0  0  0  0  0  0  0  0  0  0
   12.7292   10.9960   18.4597 C   0  0  0  0  0  0  0  0  0  0  0  0
    9.3798    6.6793   23.6625 C   0  0  0  0  0  0  0  0  0  0  0  0
   14.7425   10.0739   19.0802 O   0  0  0  0  0  0  0  0  0  0  0  0
    5.1894    9.4673   20.7118 C   0  0  0  0  0  0  0  0  0  0  0  0
    7.3773    8.8224   21.4870 C   0  0  0  0  0  0  0  0  0  0  0  0
    8.4391    6.6439   21.0235 C   0  0  0  0  0  0  0  0  0  0  0  0
    9.6494   11.1353   20.4167 C   0  0  0  0  0  0  0  0  0  0  0  0
    8.1431    7.6829   21.9046 C   0  0  0  0  0  0  0  0  0  0  0  0
    7.7796   10.1314   21.5115 N   0  0  0  0  0  0  0  0  0  0  0  0
    9.2768    5.6183   21.4437 C   0  0  0  0  0  0  0  0  0  0  0  0
    8.6315    7.7322   23.1768 C   0  0  0  0  0  0  0  0  0  0  0  0
   13.0537    9.9821   20.5781 C   0  0  0  0  0  0  0  0  0  0  0  0
   10.3850    4.6575   23.2386 O   0  0  0  0  0  0  0  0  0  0  0  0
    4.2069    6.8450   20.7994 C   0  0  0  0  0  0  0  0  0  0  0  0
    3.0726   10.1043   19.8522 O   0  0  0  0  0  0  0  0  0  0  0  0
    5.5057    7.1196   21.1155 C   0  0  0  0  0  0  0  0  0  0  0  0
    7.0367   11.0229   21.9948 O   0  0  0  0  0  0  0  0  0  0  0  0
  1  8  4  0
  1 12  4  0
  2  9  1  0
  2 11  4  0
  2 25  4  0
  3 12  4  0
  3 14  1  0
  3 23  4  0
  4 13  4  0
  4 21  4  0
  4 24  1  0
  5  8  4  0
  5 23  4  0
  6 18  2  0
  7 15  4  0
  7 16  1  0
  7 27  4  0
  8 18  1  0
 10 18  1  0
 10 20  1  0
 11 15  4  0
 11 26  1  0
 13 22  4  0
 16 19  1  0
 16 20  2  0
 17 19  4  0
 17 21  4  0
 19 22  4  0
 20 28  1  0
 25 27  4  0
M  END
$$$$

 Created by Python create_sdf_string function

 28 30  0  0  0  0  0  0  0  0999 V2000
   11.4592   11.2893   18.7941 C   0  0  0  0  0  0  0  0  0  0  0  0
    3.4202    7.9009   20.3866 C   0  0  0  0  0  0  0  0  0  0  0  0
   13.5280   10.3522   19.3586 C   0  0  0  0  0  0  0  0  0  0  0  0
    9.6923    5.6468   22.7891 C   0  0  0  0  0  0  0  0  0  0  0  0
   11.7756   10.2554   20.8841 N   0  0  0  0  0  0  0  0  0  0  0  0
    8.9876   11.9370   19.8757 O   0  0  0  0  0  0  0  0  0  0  0  0
    6.0167    8.4478   21.1089 C   0  0  0  0  0  0  0  0  0  0  0  0
   11.0002   10.8890   20.0262 C   0  0  0  0  0  0  0  0  0  0  0  0
    2.1721    7.7393   20.0315 O   0  0  0  0  0  0  0  0  0  0  0  0
    9.1107   10.3880   21.3769 N   0  0  0  0  0  0  0  0  0  0  0  0
    3.9102    9.2008   20.3124 C   0  0  0  0  0  0  0  0  0  0  0  0
   12.7292   10.9960   18.4597 C   0  0  0  0  0  0  0  0  0  0  0  0
    9.3798    6.6793   23.6625 C   0  0  0  0  0  0  0  0  0  0  0  0
   14.7425   10.0739   19.0802 O   0  0  0  0  0  0  0  0  0  0  0  0
    5.1894    9.4673   20.7118 C   0  0  0  0  0  0  0  0  0  0  0  0
    7.3773    8.8224   21.4870 C   0  0  0  0  0  0  0  0  0  0  0  0
    8.4391    6.6439   21.0235 C   0  0  0  0  0  0  0  0  0  0  0  0
    9.6494   11.1353   20.4167 C   0  0  0  0  0  0  0  0  0  0  0  0
    8.1431    7.6829   21.9046 C   0  0  0  0  0  0  0  0  0  0  0  0
    7.7796   10.1314   21.5115 N   0  0  0  0  0  0  0  0  0  0  0  0
    9.2768    5.6183   21.4437 C   0  0  0  0  0  0  0  0  0  0  0  0
    8.6315    7.7322   23.1768 C   0  0  0  0  0  0  0  0  0  0  0  0
   13.0537    9.9821   20.5781 C   0  0  0  0  0  0  0  0  0  0  0  0
   10.3850    4.6575   23.2386 O   0  0  0  0  0  0  0  0  0  0  0  0
    4.2069    6.8450   20.7994 C   0  0  0  0  0  0  0  0  0  0  0  0
    3.0726   10.1043   19.8522 O   0  0  0  0  0  0  0  0  0  0  0  0
    5.5057    7.1196   21.1155 C   0  0  0  0  0  0  0  0  0  0  0  0
    7.0367   11.0229   21.9948 O   0  0  0  0  0  0  0  0  0  0  0  0
  1  8  4  0
  1 12  4  0
  2  9  1  0
  2 11  4  0
  2 25  4  0
  3 12  4  0
  3 14  1  0
  3 23  4  0
  4 13  4  0
  4 21  4  0
  4 24  1  0
  5  8  4  0
  5 23  4  0
  6 18  2  0
  7 15  4  0
  7 16  1  0
  7 27  4  0
  8 18  1  0
 10 18  1  0
 10 20  1  0
 11 15  4  0
 11 26  1  0
 13 22  4  0
 16 19  1  0
 16 20  2  0
 17 19  4  0
 17 21  4  0
 19 22  4  0
 20 28  1  0
 25 27  4  0
M  END
$$$$

 Created by Python create_sdf_string function

 28 30  0  0  0  0  0  0  0  0999 V2000
   11.4592   11.2893   18.7941 C   0  0  0  0  0  0  0  0  0  0  0  0
    3.4202    7.9009   20.3866 C   0  0  0  0  0  0  0  0  0  0  0  0
   13.5280   10.3522   19.3586 C   0  0  0  0  0  0  0  0  0  0  0  0
    9.6923    5.6468   22.7891 C   0  0  0  0  0  0  0  0  0  0  0  0
   11.7756   10.2554   20.8841 N   0  0  0  0  0  0  0  0  0  0  0  0
    8.9876   11.9370   19.8757 O   0  0  0  0  0  0  0  0  0  0  0  0
    6.0167    8.4478   21.1089 C   0  0  0  0  0  0  0  0  0  0  0  0
   11.0002   10.8890   20.0262 C   0  0  0  0  0  0  0  0  0  0  0  0
    2.1721    7.7393   20.0315 O   0  0  0  0  0  0  0  0  0  0  0  0
    9.1107   10.3880   21.3769 N   0  0  0  0  0  0  0  0  0  0  0  0
    3.9102    9.2008   20.3124 C   0  0  0  0  0  0  0  0  0  0  0  0
   12.7292   10.9960   18.4597 C   0  0  0  0  0  0  0  0  0  0  0  0
    9.3798    6.6793   23.6625 C   0  0  0  0  0  0  0  0  0  0  0  0
   14.7425   10.0739   19.0802 O   0  0  0  0  0  0  0  0  0  0  0  0
    5.1894    9.4673   20.7118 C   0  0  0  0  0  0  0  0  0  0  0  0
    7.3773    8.8224   21.4870 C   0  0  0  0  0  0  0  0  0  0  0  0
    8.4391    6.6439   21.0235 C   0  0  0  0  0  0  0  0  0  0  0  0
    9.6494   11.1353   20.4167 C   0  0  0  0  0  0  0  0  0  0  0  0
    8.1431    7.6829   21.9046 C   0  0  0  0  0  0  0  0  0  0  0  0
    7.7796   10.1314   21.5115 N   0  0  0  0  0  0  0  0  0  0  0  0
    9.2768    5.6183   21.4437 C   0  0  0  0  0  0  0  0  0  0  0  0
    8.6315    7.7322   23.1768 C   0  0  0  0  0  0  0  0  0  0  0  0
   13.0537    9.9821   20.5781 C   0  0  0  0  0  0  0  0  0  0  0  0
   10.3850    4.6575   23.2386 O   0  0  0  0  0  0  0  0  0  0  0  0
    4.2069    6.8450   20.7994 C   0  0  0  0  0  0  0  0  0  0  0  0
    3.0726   10.1043   19.8522 O   0  0  0  0  0  0  0  0  0  0  0  0
    5.5057    7.1196   21.1155 C   0  0  0  0  0  0  0  0  0  0  0  0
    7.0367   11.0229   21.9948 O   0  0  0  0  0  0  0  0  0  0  0  0
  1  8  4  0
  1 12  4  0
  2  9  1  0
  2 11  4  0
  2 25  4  0
  3 12  4  0
  3 14  1  0
  3 23  4  0
  4 13  4  0
  4 21  4  0
  4 24  1  0
  5  8  4  0
  5 23  4  0
  6 18  2  0
  7 15  4  0
  7 16  1  0
  7 27  4  0
  8 18  1  0
 10 18  1  0
 10 20  1  0
 11 15  4  0
 11 26  1  0
 13 22  4  0
 16 19  1  0
 16 20  2  0
 17 19  4  0
 17 21  4  0
 19 22  4  0
 20 28  1  0
 25 27  4  0
M  END
$$$$

 Created by Python create_sdf_string function

 28 30  0  0  0  0  0  0  0  0999 V2000
   11.4592   11.2893   18.7941 C   0  0  0  0  0  0  0  0  0  0  0  0
    3.4202    7.9009   20.3866 C   0  0  0  0  0  0  0  0  0  0  0  0
   13.5280   10.3522   19.3586 C   0  0  0  0  0  0  0  0  0  0  0  0
    9.6923    5.6468   22.7891 C   0  0  0  0  0  0  0  0  0  0  0  0
   11.7756   10.2554   20.8841 N   0  0  0  0  0  0  0  0  0  0  0  0
    8.9876   11.9370   19.8757 O   0  0  0  0  0  0  0  0  0  0  0  0
    6.0167    8.4478   21.1089 C   0  0  0  0  0  0  0  0  0  0  0  0
   11.0002   10.8890   20.0262 C   0  0  0  0  0  0  0  0  0  0  0  0
    2.1721    7.7393   20.0315 O   0  0  0  0  0  0  0  0  0  0  0  0
    9.1107   10.3880   21.3769 N   0  0  0  0  0  0  0  0  0  0  0  0
    3.9102    9.2008   20.3124 C   0  0  0  0  0  0  0  0  0  0  0  0
   12.7292   10.9960   18.4597 C   0  0  0  0  0  0  0  0  0  0  0  0
    9.3798    6.6793   23.6625 C   0  0  0  0  0  0  0  0  0  0  0  0
   14.7425   10.0739   19.0802 O   0  0  0  0  0  0  0  0  0  0  0  0
    5.1894    9.4673   20.7118 C   0  0  0  0  0  0  0  0  0  0  0  0
    7.3773    8.8224   21.4870 C   0  0  0  0  0  0  0  0  0  0  0  0
    8.4391    6.6439   21.0235 C   0  0  0  0  0  0  0  0  0  0  0  0
    9.6494   11.1353   20.4167 C   0  0  0  0  0  0  0  0  0  0  0  0
    8.1431    7.6829   21.9046 C   0  0  0  0  0  0  0  0  0  0  0  0
    7.7796   10.1314   21.5115 N   0  0  0  0  0  0  0  0  0  0  0  0
    9.2768    5.6183   21.4437 C   0  0  0  0  0  0  0  0  0  0  0  0
    8.6315    7.7322   23.1768 C   0  0  0  0  0  0  0  0  0  0  0  0
   13.0537    9.9821   20.5781 C   0  0  0  0  0  0  0  0  0  0  0  0
   10.3850    4.6575   23.2386 O   0  0  0  0  0  0  0  0  0  0  0  0
    4.2069    6.8450   20.7994 C   0  0  0  0  0  0  0  0  0  0  0  0
    3.0726   10.1043   19.8522 O   0  0  0  0  0  0  0  0  0  0  0  0
    5.5057    7.1196   21.1155 C   0  0  0  0  0  0  0  0  0  0  0  0
    7.0367   11.0229   21.9948 O   0  0  0  0  0  0  0  0  0  0  0  0
  1  8  4  0
  1 12  4  0
  2  9  1  0
  2 11  4  0
  2 25  4  0
  3 12  4  0
  3 14  1  0
  3 23  4  0
  4 13  4  0
  4 21  4  0
  4 24  1  0
  5  8  4  0
  5 23  4  0
  6 18  2  0
  7 15  4  0
  7 16  1  0
  7 27  4  0
  8 18  1  0
 10 18  1  0
 10 20  1  0
 11 15  4  0
 11 26  1  0
 13 22  4  0
 16 19  1  0
 16 20  2  0
 17 19  4  0
 17 21  4  0
 19 22  4  0
 20 28  1  0
 25 27  4  0
M  END
$$$$

 Created by Python create_sdf_string function

 28 30  0  0  0  0  0  0  0  0999 V2000
   11.4592   11.2893   18.7941 C   0  0  0  0  0  0  0  0  0  0  0  0
    3.4202    7.9009   20.3866 C   0  0  0  0  0  0  0  0  0  0  0  0
   13.5280   10.3522   19.3586 C   0  0  0  0  0  0  0  0  0  0  0  0
    9.6923    5.6468   22.7891 C   0  0  0  0  0  0  0  0  0  0  0  0
   11.7756   10.2554   20.8841 N   0  0  0  0  0  0  0  0  0  0  0  0
    8.9876   11.9370   19.8757 O   0  0  0  0  0  0  0  0  0  0  0  0
    6.0167    8.4478   21.1089 C   0  0  0  0  0  0  0  0  0  0  0  0
   11.0002   10.8890   20.0262 C   0  0  0  0  0  0  0  0  0  0  0  0
    2.1721    7.7393   20.0315 O   0  0  0  0  0  0  0  0  0  0  0  0
    9.1107   10.3880   21.3769 N   0  0  0  0  0  0  0  0  0  0  0  0
    3.9102    9.2008   20.3124 C   0  0  0  0  0  0  0  0  0  0  0  0
   12.7292   10.9960   18.4597 C   0  0  0  0  0  0  0  0  0  0  0  0
    9.3798    6.6793   23.6625 C   0  0  0  0  0  0  0  0  0  0  0  0
   14.7425   10.0739   19.0802 O   0  0  0  0  0  0  0  0  0  0  0  0
    5.1894    9.4673   20.7118 C   0  0  0  0  0  0  0  0  0  0  0  0
    7.3773    8.8224   21.4870 C   0  0  0  0  0  0  0  0  0  0  0  0
    8.4391    6.6439   21.0235 C   0  0  0  0  0  0  0  0  0  0  0  0
    9.6494   11.1353   20.4167 C   0  0  0  0  0  0  0  0  0  0  0  0
    8.1431    7.6829   21.9046 C   0  0  0  0  0  0  0  0  0  0  0  0
    7.7796   10.1314   21.5115 N   0  0  0  0  0  0  0  0  0  0  0  0
    9.2768    5.6183   21.4437 C   0  0  0  0  0  0  0  0  0  0  0  0
    8.6315    7.7322   23.1768 C   0  0  0  0  0  0  0  0  0  0  0  0
   13.0537    9.9821   20.5781 C   0  0  0  0  0  0  0  0  0  0  0  0
   10.3850    4.6575   23.2386 O   0  0  0  0  0  0  0  0  0  0  0  0
    4.2069    6.8450   20.7994 C   0  0  0  0  0  0  0  0  0  0  0  0
    3.0726   10.1043   19.8522 O   0  0  0  0  0  0  0  0  0  0  0  0
    5.5057    7.1196   21.1155 C   0  0  0  0  0  0  0  0  0  0  0  0
    7.0367   11.0229   21.9948 O   0  0  0  0  0  0  0  0  0  0  0  0
  1  8  4  0
  1 12  4  0
  2  9  1  0
  2 11  4  0
  2 25  4  0
  3 12  4  0
  3 14  1  0
  3 23  4  0
  4 13  4  0
  4 21  4  0
  4 24  1  0
  5  8  4  0
  5 23  4  0
  6 18  2  0
  7 15  4  0
  7 16  1  0
  7 27  4  0
  8 18  1  0
 10 18  1  0
 10 20  1  0
 11 15  4  0
 11 26  1  0
 13 22  4  0
 16 19  1  0
 16 20  2  0
 17 19  4  0
 17 21  4  0
 19 22  4  0
 20 28  1  0
 25 27  4  0
M  END
$$$$

 Created by Python create_sdf_string function

 28 30  0  0  0  0  0  0  0  0999 V2000
   11.4592   11.2893   18.7941 C   0  0  0  0  0  0  0  0  0  0  0  0
    3.4202    7.9009   20.3866 C   0  0  0  0  0  0  0  0  0  0  0  0
   13.5280   10.3522   19.3586 C   0  0  0  0  0  0  0  0  0  0  0  0
    9.6923    5.6468   22.7891 C   0  0  0  0  0  0  0  0  0  0  0  0
   11.7756   10.2554   20.8841 N   0  0  0  0  0  0  0  0  0  0  0  0
    8.9876   11.9370   19.8757 O   0  0  0  0  0  0  0  0  0  0  0  0
    6.0167    8.4478   21.1089 C   0  0  0  0  0  0  0  0  0  0  0  0
   11.0002   10.8890   20.0262 C   0  0  0  0  0  0  0  0  0  0  0  0
    2.1721    7.7393   20.0315 O   0  0  0  0  0  0  0  0  0  0  0  0
    9.1107   10.3880   21.3769 N   0  0  0  0  0  0  0  0  0  0  0  0
    3.9102    9.2008   20.3124 C   0  0  0  0  0  0  0  0  0  0  0  0
   12.7292   10.9960   18.4597 C   0  0  0  0  0  0  0  0  0  0  0  0
    9.3798    6.6793   23.6625 C   0  0  0  0  0  0  0  0  0  0  0  0
   14.7425   10.0739   19.0802 O   0  0  0  0  0  0  0  0  0  0  0  0
    5.1894    9.4673   20.7118 C   0  0  0  0  0  0  0  0  0  0  0  0
    7.3773    8.8224   21.4870 C   0  0  0  0  0  0  0  0  0  0  0  0
    8.4391    6.6439   21.0235 C   0  0  0  0  0  0  0  0  0  0  0  0
    9.6494   11.1353   20.4167 C   0  0  0  0  0  0  0  0  0  0  0  0
    8.1431    7.6829   21.9046 C   0  0  0  0  0  0  0  0  0  0  0  0
    7.7796   10.1314   21.5115 N   0  0  0  0  0  0  0  0  0  0  0  0
    9.2768    5.6183   21.4437 C   0  0  0  0  0  0  0  0  0  0  0  0
    8.6315    7.7322   23.1768 C   0  0  0  0  0  0  0  0  0  0  0  0
   13.0537    9.9821   20.5781 C   0  0  0  0  0  0  0  0  0  0  0  0
   10.3850    4.6575   23.2386 O   0  0  0  0  0  0  0  0  0  0  0  0
    4.2069    6.8450   20.7994 C   0  0  0  0  0  0  0  0  0  0  0  0
    3.0726   10.1043   19.8522 O   0  0  0  0  0  0  0  0  0  0  0  0
    5.5057    7.1196   21.1155 C   0  0  0  0  0  0  0  0  0  0  0  0
    7.0367   11.0229   21.9948 O   0  0  0  0  0  0  0  0  0  0  0  0
  1  8  4  0
  1 12  4  0
  2  9  1  0
  2 11  4  0
  2 25  4  0
  3 12  4  0
  3 14  1  0
  3 23  4  0
  4 13  4  0
  4 21  4  0
  4 24  1  0
  5  8  4  0
  5 23  4  0
  6 18  2  0
  7 15  4  0
  7 16  1  0
  7 27  4  0
  8 18  1  0
 10 18  1  0
 10 20  1  0
 11 15  4  0
 11 26  1  0
 13 22  4  0
 16 19  1  0
 16 20  2  0
 17 19  4  0
 17 21  4  0
 19 22  4  0
 20 28  1  0
 25 27  4  0
M  END
$$$$

 Created by Python create_sdf_string function

 28 30  0  0  0  0  0  0  0  0999 V2000
   11.4592   11.2893   18.7941 C   0  0  0  0  0  0  0  0  0  0  0  0
    3.4202    7.9009   20.3866 C   0  0  0  0  0  0  0  0  0  0  0  0
   13.5280   10.3522   19.3586 C   0  0  0  0  0  0  0  0  0  0  0  0
    9.6923    5.6468   22.7891 C   0  0  0  0  0  0  0  0  0  0  0  0
   11.7756   10.2554   20.8841 N   0  0  0  0  0  0  0  0  0  0  0  0
    8.9876   11.9370   19.8757 O   0  0  0  0  0  0  0  0  0  0  0  0
    6.0167    8.4478   21.1089 C   0  0  0  0  0  0  0  0  0  0  0  0
   11.0002   10.8890   20.0262 C   0  0  0  0  0  0  0  0  0  0  0  0
    2.1721    7.7393   20.0315 O   0  0  0  0  0  0  0  0  0  0  0  0
    9.1107   10.3880   21.3769 N   0  0  0  0  0  0  0  0  0  0  0  0
    3.9102    9.2008   20.3124 C   0  0  0  0  0  0  0  0  0  0  0  0
   12.7292   10.9960   18.4597 C   0  0  0  0  0  0  0  0  0  0  0  0
    9.3798    6.6793   23.6625 C   0  0  0  0  0  0  0  0  0  0  0  0
   14.7425   10.0739   19.0802 O   0  0  0  0  0  0  0  0  0  0  0  0
    5.1894    9.4673   20.7118 C   0  0  0  0  0  0  0  0  0  0  0  0
    7.3773    8.8224   21.4870 C   0  0  0  0  0  0  0  0  0  0  0  0
    8.4391    6.6439   21.0235 C   0  0  0  0  0  0  0  0  0  0  0  0
    9.6494   11.1353   20.4167 C   0  0  0  0  0  0  0  0  0  0  0  0
    8.1431    7.6829   21.9046 C   0  0  0  0  0  0  0  0  0  0  0  0
    7.7796   10.1314   21.5115 N   0  0  0  0  0  0  0  0  0  0  0  0
    9.2768    5.6183   21.4437 C   0  0  0  0  0  0  0  0  0  0  0  0
    8.6315    7.7322   23.1768 C   0  0  0  0  0  0  0  0  0  0  0  0
   13.0537    9.9821   20.5781 C   0  0  0  0  0  0  0  0  0  0  0  0
   10.3850    4.6575   23.2386 O   0  0  0  0  0  0  0  0  0  0  0  0
    4.2069    6.8450   20.7994 C   0  0  0  0  0  0  0  0  0  0  0  0
    3.0726   10.1043   19.8522 O   0  0  0  0  0  0  0  0  0  0  0  0
    5.5057    7.1196   21.1155 C   0  0  0  0  0  0  0  0  0  0  0  0
    7.0367   11.0229   21.9948 O   0  0  0  0  0  0  0  0  0  0  0  0
  1  8  4  0
  1 12  4  0
  2  9  1  0
  2 11  4  0
  2 25  4  0
  3 12  4  0
  3 14  1  0
  3 23  4  0
  4 13  4  0
  4 21  4  0
  4 24  1  0
  5  8  4  0
  5 23  4  0
  6 18  2  0
  7 15  4  0
  7 16  1  0
  7 27  4  0
  8 18  1  0
 10 18  1  0
 10 20  1  0
 11 15  4  0
 11 26  1  0
 13 22  4  0
 16 19  1  0
 16 20  2  0
 17 19  4  0
 17 21  4  0
 19 22  4  0
 20 28  1  0
 25 27  4  0
M  END
$$$$

 Created by Python create_sdf_string function

 28 30  0  0  0  0  0  0  0  0999 V2000
   11.4592   11.2893   18.7941 C   0  0  0  0  0  0  0  0  0  0  0  0
    3.4202    7.9009   20.3866 C   0  0  0  0  0  0  0  0  0  0  0  0
   13.5280   10.3522   19.3586 C   0  0  0  0  0  0  0  0  0  0  0  0
    9.6923    5.6468   22.7891 C   0  0  0  0  0  0  0  0  0  0  0  0
   11.7756   10.2554   20.8841 N   0  0  0  0  0  0  0  0  0  0  0  0
    8.9876   11.9370   19.8757 O   0  0  0  0  0  0  0  0  0  0  0  0
    6.0167    8.4478   21.1089 C   0  0  0  0  0  0  0  0  0  0  0  0
   11.0002   10.8890   20.0262 C   0  0  0  0  0  0  0  0  0  0  0  0
    2.1721    7.7393   20.0315 O   0  0  0  0  0  0  0  0  0  0  0  0
    9.1107   10.3880   21.3769 N   0  0  0  0  0  0  0  0  0  0  0  0
    3.9102    9.2008   20.3124 C   0  0  0  0  0  0  0  0  0  0  0  0
   12.7292   10.9960   18.4597 C   0  0  0  0  0  0  0  0  0  0  0  0
    9.3798    6.6793   23.6625 C   0  0  0  0  0  0  0  0  0  0  0  0
   14.7425   10.0739   19.0802 O   0  0  0  0  0  0  0  0  0  0  0  0
    5.1894    9.4673   20.7118 C   0  0  0  0  0  0  0  0  0  0  0  0
    7.3773    8.8224   21.4870 C   0  0  0  0  0  0  0  0  0  0  0  0
    8.4391    6.6439   21.0235 C   0  0  0  0  0  0  0  0  0  0  0  0
    9.6494   11.1353   20.4167 C   0  0  0  0  0  0  0  0  0  0  0  0
    8.1431    7.6829   21.9046 C   0  0  0  0  0  0  0  0  0  0  0  0
    7.7796   10.1314   21.5115 N   0  0  0  0  0  0  0  0  0  0  0  0
    9.2768    5.6183   21.4437 C   0  0  0  0  0  0  0  0  0  0  0  0
    8.6315    7.7322   23.1768 C   0  0  0  0  0  0  0  0  0  0  0  0
   13.0537    9.9821   20.5781 C   0  0  0  0  0  0  0  0  0  0  0  0
   10.3850    4.6575   23.2386 O   0  0  0  0  0  0  0  0  0  0  0  0
    4.2069    6.8450   20.7994 C   0  0  0  0  0  0  0  0  0  0  0  0
    3.0726   10.1043   19.8522 O   0  0  0  0  0  0  0  0  0  0  0  0
    5.5057    7.1196   21.1155 C   0  0  0  0  0  0  0  0  0  0  0  0
    7.0367   11.0229   21.9948 O   0  0  0  0  0  0  0  0  0  0  0  0
  1  8  4  0
  1 12  4  0
  2  9  1  0
  2 11  4  0
  2 25  4  0
  3 12  4  0
  3 14  1  0
  3 23  4  0
  4 13  4  0
  4 21  4  0
  4 24  1  0
  5  8  4  0
  5 23  4  0
  6 18  2  0
  7 15  4  0
  7 16  1  0
  7 27  4  0
  8 18  1  0
 10 18  1  0
 10 20  1  0
 11 15  4  0
 11 26  1  0
 13 22  4  0
 16 19  1  0
 16 20  2  0
 17 19  4  0
 17 21  4  0
 19 22  4  0
 20 28  1  0
 25 27  4  0
M  END
$$$$

 Created by Python create_sdf_string function

 28 30  0  0  0  0  0  0  0  0999 V2000
   11.4592   11.2893   18.7941 C   0  0  0  0  0  0  0  0  0  0  0  0
    3.4202    7.9009   20.3866 C   0  0  0  0  0  0  0  0  0  0  0  0
   13.5280   10.3522   19.3586 C   0  0  0  0  0  0  0  0  0  0  0  0
    9.6923    5.6468   22.7891 C   0  0  0  0  0  0  0  0  0  0  0  0
   11.7756   10.2554   20.8841 N   0  0  0  0  0  0  0  0  0  0  0  0
    8.9876   11.9370   19.8757 O   0  0  0  0  0  0  0  0  0  0  0  0
    6.0167    8.4478   21.1089 C   0  0  0  0  0  0  0  0  0  0  0  0
   11.0002   10.8890   20.0262 C   0  0  0  0  0  0  0  0  0  0  0  0
    2.1721    7.7393   20.0315 O   0  0  0  0  0  0  0  0  0  0  0  0
    9.1107   10.3880   21.3769 N   0  0  0  0  0  0  0  0  0  0  0  0
    3.9102    9.2008   20.3124 C   0  0  0  0  0  0  0  0  0  0  0  0
   12.7292   10.9960   18.4597 C   0  0  0  0  0  0  0  0  0  0  0  0
    9.3798    6.6793   23.6625 C   0  0  0  0  0  0  0  0  0  0  0  0
   14.7425   10.0739   19.0802 O   0  0  0  0  0  0  0  0  0  0  0  0
    5.1894    9.4673   20.7118 C   0  0  0  0  0  0  0  0  0  0  0  0
    7.3773    8.8224   21.4870 C   0  0  0  0  0  0  0  0  0  0  0  0
    8.4391    6.6439   21.0235 C   0  0  0  0  0  0  0  0  0  0  0  0
    9.6494   11.1353   20.4167 C   0  0  0  0  0  0  0  0  0  0  0  0
    8.1431    7.6829   21.9046 C   0  0  0  0  0  0  0  0  0  0  0  0
    7.7796   10.1314   21.5115 N   0  0  0  0  0  0  0  0  0  0  0  0
    9.2768    5.6183   21.4437 C   0  0  0  0  0  0  0  0  0  0  0  0
    8.6315    7.7322   23.1768 C   0  0  0  0  0  0  0  0  0  0  0  0
   13.0537    9.9821   20.5781 C   0  0  0  0  0  0  0  0  0  0  0  0
   10.3850    4.6575   23.2386 O   0  0  0  0  0  0  0  0  0  0  0  0
    4.2069    6.8450   20.7994 C   0  0  0  0  0  0  0  0  0  0  0  0
    3.0726   10.1043   19.8522 O   0  0  0  0  0  0  0  0  0  0  0  0
    5.5057    7.1196   21.1155 C   0  0  0  0  0  0  0  0  0  0  0  0
    7.0367   11.0229   21.9948 O   0  0  0  0  0  0  0  0  0  0  0  0
  1  8  4  0
  1 12  4  0
  2  9  1  0
  2 11  4  0
  2 25  4  0
  3 12  4  0
  3 14  1  0
  3 23  4  0
  4 13  4  0
  4 21  4  0
  4 24  1  0
  5  8  4  0
  5 23  4  0
  6 18  2  0
  7 15  4  0
  7 16  1  0
  7 27  4  0
  8 18  1  0
 10 18  1  0
 10 20  1  0
 11 15  4  0
 11 26  1  0
 13 22  4  0
 16 19  1  0
 16 20  2  0
 17 19  4  0
 17 21  4  0
 19 22  4  0
 20 28  1  0
 25 27  4  0
M  END
$$$$

 Created by Python create_sdf_string function

 28 30  0  0  0  0  0  0  0  0999 V2000
   11.4592   11.2893   18.7941 C   0  0  0  0  0  0  0  0  0  0  0  0
    3.4202    7.9009   20.3866 C   0  0  0  0  0  0  0  0  0  0  0  0
   13.5280   10.3522   19.3586 C   0  0  0  0  0  0  0  0  0  0  0  0
    9.6923    5.6468   22.7891 C   0  0  0  0  0  0  0  0  0  0  0  0
   11.7756   10.2554   20.8841 N   0  0  0  0  0  0  0  0  0  0  0  0
    8.9876   11.9370   19.8757 O   0  0  0  0  0  0  0  0  0  0  0  0
    6.0167    8.4478   21.1089 C   0  0  0  0  0  0  0  0  0  0  0  0
   11.0002   10.8890   20.0262 C   0  0  0  0  0  0  0  0  0  0  0  0
    2.1721    7.7393   20.0315 O   0  0  0  0  0  0  0  0  0  0  0  0
    9.1107   10.3880   21.3769 N   0  0  0  0  0  0  0  0  0  0  0  0
    3.9102    9.2008   20.3124 C   0  0  0  0  0  0  0  0  0  0  0  0
   12.7292   10.9960   18.4597 C   0  0  0  0  0  0  0  0  0  0  0  0
    9.3798    6.6793   23.6625 C   0  0  0  0  0  0  0  0  0  0  0  0
   14.7425   10.0739   19.0802 O   0  0  0  0  0  0  0  0  0  0  0  0
    5.1894    9.4673   20.7118 C   0  0  0  0  0  0  0  0  0  0  0  0
    7.3773    8.8224   21.4870 C   0  0  0  0  0  0  0  0  0  0  0  0
    8.4391    6.6439   21.0235 C   0  0  0  0  0  0  0  0  0  0  0  0
    9.6494   11.1353   20.4167 C   0  0  0  0  0  0  0  0  0  0  0  0
    8.1431    7.6829   21.9046 C   0  0  0  0  0  0  0  0  0  0  0  0
    7.7796   10.1314   21.5115 N   0  0  0  0  0  0  0  0  0  0  0  0
    9.2768    5.6183   21.4437 C   0  0  0  0  0  0  0  0  0  0  0  0
    8.6315    7.7322   23.1768 C   0  0  0  0  0  0  0  0  0  0  0  0
   13.0537    9.9821   20.5781 C   0  0  0  0  0  0  0  0  0  0  0  0
   10.3850    4.6575   23.2386 O   0  0  0  0  0  0  0  0  0  0  0  0
    4.2069    6.8450   20.7994 C   0  0  0  0  0  0  0  0  0  0  0  0
    3.0726   10.1043   19.8522 O   0  0  0  0  0  0  0  0  0  0  0  0
    5.5057    7.1196   21.1155 C   0  0  0  0  0  0  0  0  0  0  0  0
    7.0367   11.0229   21.9948 O   0  0  0  0  0  0  0  0  0  0  0  0
  1  8  4  0
  1 12  4  0
  2  9  1  0
  2 11  4  0
  2 25  4  0
  3 12  4  0
  3 14  1  0
  3 23  4  0
  4 13  4  0
  4 21  4  0
  4 24  1  0
  5  8  4  0
  5 23  4  0
  6 18  2  0
  7 15  4  0
  7 16  1  0
  7 27  4  0
  8 18  1  0
 10 18  1  0
 10 20  1  0
 11 15  4  0
 11 26  1  0
 13 22  4  0
 16 19  1  0
 16 20  2  0
 17 19  4  0
 17 21  4  0
 19 22  4  0
 20 28  1  0
 25 27  4  0
M  END
$$$$

 Created by Python create_sdf_string function

 28 30  0  0  0  0  0  0  0  0999 V2000
   11.4592   11.2893   18.7941 C   0  0  0  0  0  0  0  0  0  0  0  0
    3.4202    7.9009   20.3866 C   0  0  0  0  0  0  0  0  0  0  0  0
   13.5280   10.3522   19.3586 C   0  0  0  0  0  0  0  0  0  0  0  0
    9.6923    5.6468   22.7891 C   0  0  0  0  0  0  0  0  0  0  0  0
   11.7756   10.2554   20.8841 N   0  0  0  0  0  0  0  0  0  0  0  0
    8.9876   11.9370   19.8757 O   0  0  0  0  0  0  0  0  0  0  0  0
    6.0167    8.4478   21.1089 C   0  0  0  0  0  0  0  0  0  0  0  0
   11.0002   10.8890   20.0262 C   0  0  0  0  0  0  0  0  0  0  0  0
    2.1721    7.7393   20.0315 O   0  0  0  0  0  0  0  0  0  0  0  0
    9.1107   10.3880   21.3769 N   0  0  0  0  0  0  0  0  0  0  0  0
    3.9102    9.2008   20.3124 C   0  0  0  0  0  0  0  0  0  0  0  0
   12.7292   10.9960   18.4597 C   0  0  0  0  0  0  0  0  0  0  0  0
    9.3798    6.6793   23.6625 C   0  0  0  0  0  0  0  0  0  0  0  0
   14.7425   10.0739   19.0802 O   0  0  0  0  0  0  0  0  0  0  0  0
    5.1894    9.4673   20.7118 C   0  0  0  0  0  0  0  0  0  0  0  0
    7.3773    8.8224   21.4870 C   0  0  0  0  0  0  0  0  0  0  0  0
    8.4391    6.6439   21.0235 C   0  0  0  0  0  0  0  0  0  0  0  0
    9.6494   11.1353   20.4167 C   0  0  0  0  0  0  0  0  0  0  0  0
    8.1431    7.6829   21.9046 C   0  0  0  0  0  0  0  0  0  0  0  0
    7.7796   10.1314   21.5115 N   0  0  0  0  0  0  0  0  0  0  0  0
    9.2768    5.6183   21.4437 C   0  0  0  0  0  0  0  0  0  0  0  0
    8.6315    7.7322   23.1768 C   0  0  0  0  0  0  0  0  0  0  0  0
   13.0537    9.9821   20.5781 C   0  0  0  0  0  0  0  0  0  0  0  0
   10.3850    4.6575   23.2386 O   0  0  0  0  0  0  0  0  0  0  0  0
    4.2069    6.8450   20.7994 C   0  0  0  0  0  0  0  0  0  0  0  0
    3.0726   10.1043   19.8522 O   0  0  0  0  0  0  0  0  0  0  0  0
    5.5057    7.1196   21.1155 C   0  0  0  0  0  0  0  0  0  0  0  0
    7.0367   11.0229   21.9948 O   0  0  0  0  0  0  0  0  0  0  0  0
  1  8  4  0
  1 12  4  0
  2  9  1  0
  2 11  4  0
  2 25  4  0
  3 12  4  0
  3 14  1  0
  3 23  4  0
  4 13  4  0
  4 21  4  0
  4 24  1  0
  5  8  4  0
  5 23  4  0
  6 18  2  0
  7 15  4  0
  7 16  1  0
  7 27  4  0
  8 18  1  0
 10 18  1  0
 10 20  1  0
 11 15  4  0
 11 26  1  0
 13 22  4  0
 16 19  1  0
 16 20  2  0
 17 19  4  0
 17 21  4  0
 19 22  4  0
 20 28  1  0
 25 27  4  0
M  END
$$$$

 Created by Python create_sdf_string function

 28 30  0  0  0  0  0  0  0  0999 V2000
   11.4592   11.2893   18.7941 C   0  0  0  0  0  0  0  0  0  0  0  0
    3.4202    7.9009   20.3866 C   0  0  0  0  0  0  0  0  0  0  0  0
   13.5280   10.3522   19.3586 C   0  0  0  0  0  0  0  0  0  0  0  0
    9.6923    5.6468   22.7891 C   0  0  0  0  0  0  0  0  0  0  0  0
   11.7756   10.2554   20.8841 N   0  0  0  0  0  0  0  0  0  0  0  0
    8.9876   11.9370   19.8757 O   0  0  0  0  0  0  0  0  0  0  0  0
    6.0167    8.4478   21.1089 C   0  0  0  0  0  0  0  0  0  0  0  0
   11.0002   10.8890   20.0262 C   0  0  0  0  0  0  0  0  0  0  0  0
    2.1721    7.7393   20.0315 O   0  0  0  0  0  0  0  0  0  0  0  0
    9.1107   10.3880   21.3769 N   0  0  0  0  0  0  0  0  0  0  0  0
    3.9102    9.2008   20.3124 C   0  0  0  0  0  0  0  0  0  0  0  0
   12.7292   10.9960   18.4597 C   0  0  0  0  0  0  0  0  0  0  0  0
    9.3798    6.6793   23.6625 C   0  0  0  0  0  0  0  0  0  0  0  0
   14.7425   10.0739   19.0802 O   0  0  0  0  0  0  0  0  0  0  0  0
    5.1894    9.4673   20.7118 C   0  0  0  0  0  0  0  0  0  0  0  0
    7.3773    8.8224   21.4870 C   0  0  0  0  0  0  0  0  0  0  0  0
    8.4391    6.6439   21.0235 C   0  0  0  0  0  0  0  0  0  0  0  0
    9.6494   11.1353   20.4167 C   0  0  0  0  0  0  0  0  0  0  0  0
    8.1431    7.6829   21.9046 C   0  0  0  0  0  0  0  0  0  0  0  0
    7.7796   10.1314   21.5115 N   0  0  0  0  0  0  0  0  0  0  0  0
    9.2768    5.6183   21.4437 C   0  0  0  0  0  0  0  0  0  0  0  0
    8.6315    7.7322   23.1768 C   0  0  0  0  0  0  0  0  0  0  0  0
   13.0537    9.9821   20.5781 C   0  0  0  0  0  0  0  0  0  0  0  0
   10.3850    4.6575   23.2386 O   0  0  0  0  0  0  0  0  0  0  0  0
    4.2069    6.8450   20.7994 C   0  0  0  0  0  0  0  0  0  0  0  0
    3.0726   10.1043   19.8522 O   0  0  0  0  0  0  0  0  0  0  0  0
    5.5057    7.1196   21.1155 C   0  0  0  0  0  0  0  0  0  0  0  0
    7.0367   11.0229   21.9948 O   0  0  0  0  0  0  0  0  0  0  0  0
  1  8  4  0
  1 12  4  0
  2  9  1  0
  2 11  4  0
  2 25  4  0
  3 12  4  0
  3 14  1  0
  3 23  4  0
  4 13  4  0
  4 21  4  0
  4 24  1  0
  5  8  4  0
  5 23  4  0
  6 18  2  0
  7 15  4  0
  7 16  1  0
  7 27  4  0
  8 18  1  0
 10 18  1  0
 10 20  1  0
 11 15  4  0
 11 26  1  0
 13 22  4  0
 16 19  1  0
 16 20  2  0
 17 19  4  0
 17 21  4  0
 19 22  4  0
 20 28  1  0
 25 27  4  0
M  END
$$$$

 Created by Python create_sdf_string function

 28 30  0  0  0  0  0  0  0  0999 V2000
   11.4592   11.2893   18.7941 C   0  0  0  0  0  0  0  0  0  0  0  0
    3.4202    7.9009   20.3866 C   0  0  0  0  0  0  0  0  0  0  0  0
   13.5280   10.3522   19.3586 C   0  0  0  0  0  0  0  0  0  0  0  0
    9.6923    5.6468   22.7891 C   0  0  0  0  0  0  0  0  0  0  0  0
   11.7756   10.2554   20.8841 N   0  0  0  0  0  0  0  0  0  0  0  0
    8.9876   11.9370   19.8757 O   0  0  0  0  0  0  0  0  0  0  0  0
    6.0167    8.4478   21.1089 C   0  0  0  0  0  0  0  0  0  0  0  0
   11.0002   10.8890   20.0262 C   0  0  0  0  0  0  0  0  0  0  0  0
    2.1721    7.7393   20.0315 O   0  0  0  0  0  0  0  0  0  0  0  0
    9.1107   10.3880   21.3769 N   0  0  0  0  0  0  0  0  0  0  0  0
    3.9102    9.2008   20.3124 C   0  0  0  0  0  0  0  0  0  0  0  0
   12.7292   10.9960   18.4597 C   0  0  0  0  0  0  0  0  0  0  0  0
    9.3798    6.6793   23.6625 C   0  0  0  0  0  0  0  0  0  0  0  0
   14.7425   10.0739   19.0802 O   0  0  0  0  0  0  0  0  0  0  0  0
    5.1894    9.4673   20.7118 C   0  0  0  0  0  0  0  0  0  0  0  0
    7.3773    8.8224   21.4870 C   0  0  0  0  0  0  0  0  0  0  0  0
    8.4391    6.6439   21.0235 C   0  0  0  0  0  0  0  0  0  0  0  0
    9.6494   11.1353   20.4167 C   0  0  0  0  0  0  0  0  0  0  0  0
    8.1431    7.6829   21.9046 C   0  0  0  0  0  0  0  0  0  0  0  0
    7.7796   10.1314   21.5115 N   0  0  0  0  0  0  0  0  0  0  0  0
    9.2768    5.6183   21.4437 C   0  0  0  0  0  0  0  0  0  0  0  0
    8.6315    7.7322   23.1768 C   0  0  0  0  0  0  0  0  0  0  0  0
   13.0537    9.9821   20.5781 C   0  0  0  0  0  0  0  0  0  0  0  0
   10.3850    4.6575   23.2386 O   0  0  0  0  0  0  0  0  0  0  0  0
    4.2069    6.8450   20.7994 C   0  0  0  0  0  0  0  0  0  0  0  0
    3.0726   10.1043   19.8522 O   0  0  0  0  0  0  0  0  0  0  0  0
    5.5057    7.1196   21.1155 C   0  0  0  0  0  0  0  0  0  0  0  0
    7.0367   11.0229   21.9948 O   0  0  0  0  0  0  0  0  0  0  0  0
  1  8  4  0
  1 12  4  0
  2  9  1  0
  2 11  4  0
  2 25  4  0
  3 12  4  0
  3 14  1  0
  3 23  4  0
  4 13  4  0
  4 21  4  0
  4 24  1  0
  5  8  4  0
  5 23  4  0
  6 18  2  0
  7 15  4  0
  7 16  1  0
  7 27  4  0
  8 18  1  0
 10 18  1  0
 10 20  1  0
 11 15  4  0
 11 26  1  0
 13 22  4  0
 16 19  1  0
 16 20  2  0
 17 19  4  0
 17 21  4  0
 19 22  4  0
 20 28  1  0
 25 27  4  0
M  END
$$$$

 Created by Python create_sdf_string function

 28 30  0  0  0  0  0  0  0  0999 V2000
   11.4592   11.2893   18.7941 C   0  0  0  0  0  0  0  0  0  0  0  0
    3.4202    7.9009   20.3866 C   0  0  0  0  0  0  0  0  0  0  0  0
   13.5280   10.3522   19.3586 C   0  0  0  0  0  0  0  0  0  0  0  0
    9.6923    5.6468   22.7891 C   0  0  0  0  0  0  0  0  0  0  0  0
   11.7756   10.2554   20.8841 N   0  0  0  0  0  0  0  0  0  0  0  0
    8.9876   11.9370   19.8757 O   0  0  0  0  0  0  0  0  0  0  0  0
    6.0167    8.4478   21.1089 C   0  0  0  0  0  0  0  0  0  0  0  0
   11.0002   10.8890   20.0262 C   0  0  0  0  0  0  0  0  0  0  0  0
    2.1721    7.7393   20.0315 O   0  0  0  0  0  0  0  0  0  0  0  0
    9.1107   10.3880   21.3769 N   0  0  0  0  0  0  0  0  0  0  0  0
    3.9102    9.2008   20.3124 C   0  0  0  0  0  0  0  0  0  0  0  0
   12.7292   10.9960   18.4597 C   0  0  0  0  0  0  0  0  0  0  0  0
    9.3798    6.6793   23.6625 C   0  0  0  0  0  0  0  0  0  0  0  0
   14.7425   10.0739   19.0802 O   0  0  0  0  0  0  0  0  0  0  0  0
    5.1894    9.4673   20.7118 C   0  0  0  0  0  0  0  0  0  0  0  0
    7.3773    8.8224   21.4870 C   0  0  0  0  0  0  0  0  0  0  0  0
    8.4391    6.6439   21.0235 C   0  0  0  0  0  0  0  0  0  0  0  0
    9.6494   11.1353   20.4167 C   0  0  0  0  0  0  0  0  0  0  0  0
    8.1431    7.6829   21.9046 C   0  0  0  0  0  0  0  0  0  0  0  0
    7.7796   10.1314   21.5115 N   0  0  0  0  0  0  0  0  0  0  0  0
    9.2768    5.6183   21.4437 C   0  0  0  0  0  0  0  0  0  0  0  0
    8.6315    7.7322   23.1768 C   0  0  0  0  0  0  0  0  0  0  0  0
   13.0537    9.9821   20.5781 C   0  0  0  0  0  0  0  0  0  0  0  0
   10.3850    4.6575   23.2386 O   0  0  0  0  0  0  0  0  0  0  0  0
    4.2069    6.8450   20.7994 C   0  0  0  0  0  0  0  0  0  0  0  0
    3.0726   10.1043   19.8522 O   0  0  0  0  0  0  0  0  0  0  0  0
    5.5057    7.1196   21.1155 C   0  0  0  0  0  0  0  0  0  0  0  0
    7.0367   11.0229   21.9948 O   0  0  0  0  0  0  0  0  0  0  0  0
  1  8  4  0
  1 12  4  0
  2  9  1  0
  2 11  4  0
  2 25  4  0
  3 12  4  0
  3 14  1  0
  3 23  4  0
  4 13  4  0
  4 21  4  0
  4 24  1  0
  5  8  4  0
  5 23  4  0
  6 18  2  0
  7 15  4  0
  7 16  1  0
  7 27  4  0
  8 18  1  0
 10 18  1  0
 10 20  1  0
 11 15  4  0
 11 26  1  0
 13 22  4  0
 16 19  1  0
 16 20  2  0
 17 19  4  0
 17 21  4  0
 19 22  4  0
 20 28  1  0
 25 27  4  0
M  END
$$$$

 Created by Python create_sdf_string function

 28 30  0  0  0  0  0  0  0  0999 V2000
   11.4592   11.2893   18.7941 C   0  0  0  0  0  0  0  0  0  0  0  0
    3.4202    7.9009   20.3866 C   0  0  0  0  0  0  0  0  0  0  0  0
   13.5280   10.3522   19.3586 C   0  0  0  0  0  0  0  0  0  0  0  0
    9.6923    5.6468   22.7891 C   0  0  0  0  0  0  0  0  0  0  0  0
   11.7756   10.2554   20.8841 N   0  0  0  0  0  0  0  0  0  0  0  0
    8.9876   11.9370   19.8757 O   0  0  0  0  0  0  0  0  0  0  0  0
    6.0167    8.4478   21.1089 C   0  0  0  0  0  0  0  0  0  0  0  0
   11.0002   10.8890   20.0262 C   0  0  0  0  0  0  0  0  0  0  0  0
    2.1721    7.7393   20.0315 O   0  0  0  0  0  0  0  0  0  0  0  0
    9.1107   10.3880   21.3769 N   0  0  0  0  0  0  0  0  0  0  0  0
    3.9102    9.2008   20.3124 C   0  0  0  0  0  0  0  0  0  0  0  0
   12.7292   10.9960   18.4597 C   0  0  0  0  0  0  0  0  0  0  0  0
    9.3798    6.6793   23.6625 C   0  0  0  0  0  0  0  0  0  0  0  0
   14.7425   10.0739   19.0802 O   0  0  0  0  0  0  0  0  0  0  0  0
    5.1894    9.4673   20.7118 C   0  0  0  0  0  0  0  0  0  0  0  0
    7.3773    8.8224   21.4870 C   0  0  0  0  0  0  0  0  0  0  0  0
    8.4391    6.6439   21.0235 C   0  0  0  0  0  0  0  0  0  0  0  0
    9.6494   11.1353   20.4167 C   0  0  0  0  0  0  0  0  0  0  0  0
    8.1431    7.6829   21.9046 C   0  0  0  0  0  0  0  0  0  0  0  0
    7.7796   10.1314   21.5115 N   0  0  0  0  0  0  0  0  0  0  0  0
    9.2768    5.6183   21.4437 C   0  0  0  0  0  0  0  0  0  0  0  0
    8.6315    7.7322   23.1768 C   0  0  0  0  0  0  0  0  0  0  0  0
   13.0537    9.9821   20.5781 C   0  0  0  0  0  0  0  0  0  0  0  0
   10.3850    4.6575   23.2386 O   0  0  0  0  0  0  0  0  0  0  0  0
    4.2069    6.8450   20.7994 C   0  0  0  0  0  0  0  0  0  0  0  0
    3.0726   10.1043   19.8522 O   0  0  0  0  0  0  0  0  0  0  0  0
    5.5057    7.1196   21.1155 C   0  0  0  0  0  0  0  0  0  0  0  0
    7.0367   11.0229   21.9948 O   0  0  0  0  0  0  0  0  0  0  0  0
  1  8  4  0
  1 12  4  0
  2  9  1  0
  2 11  4  0
  2 25  4  0
  3 12  4  0
  3 14  1  0
  3 23  4  0
  4 13  4  0
  4 21  4  0
  4 24  1  0
  5  8  4  0
  5 23  4  0
  6 18  2  0
  7 15  4  0
  7 16  1  0
  7 27  4  0
  8 18  1  0
 10 18  1  0
 10 20  1  0
 11 15  4  0
 11 26  1  0
 13 22  4  0
 16 19  1  0
 16 20  2  0
 17 19  4  0
 17 21  4  0
 19 22  4  0
 20 28  1  0
 25 27  4  0
M  END
$$$$

 Created by Python create_sdf_string function

 28 30  0  0  0  0  0  0  0  0999 V2000
   11.4592   11.2893   18.7941 C   0  0  0  0  0  0  0  0  0  0  0  0
    3.4202    7.9009   20.3866 C   0  0  0  0  0  0  0  0  0  0  0  0
   13.5280   10.3522   19.3586 C   0  0  0  0  0  0  0  0  0  0  0  0
    9.6923    5.6468   22.7891 C   0  0  0  0  0  0  0  0  0  0  0  0
   11.7756   10.2554   20.8841 N   0  0  0  0  0  0  0  0  0  0  0  0
    8.9876   11.9370   19.8757 O   0  0  0  0  0  0  0  0  0  0  0  0
    6.0167    8.4478   21.1089 C   0  0  0  0  0  0  0  0  0  0  0  0
   11.0002   10.8890   20.0262 C   0  0  0  0  0  0  0  0  0  0  0  0
    2.1721    7.7393   20.0315 O   0  0  0  0  0  0  0  0  0  0  0  0
    9.1107   10.3880   21.3769 N   0  0  0  0  0  0  0  0  0  0  0  0
    3.9102    9.2008   20.3124 C   0  0  0  0  0  0  0  0  0  0  0  0
   12.7292   10.9960   18.4597 C   0  0  0  0  0  0  0  0  0  0  0  0
    9.3798    6.6793   23.6625 C   0  0  0  0  0  0  0  0  0  0  0  0
   14.7425   10.0739   19.0802 O   0  0  0  0  0  0  0  0  0  0  0  0
    5.1894    9.4673   20.7118 C   0  0  0  0  0  0  0  0  0  0  0  0
    7.3773    8.8224   21.4870 C   0  0  0  0  0  0  0  0  0  0  0  0
    8.4391    6.6439   21.0235 C   0  0  0  0  0  0  0  0  0  0  0  0
    9.6494   11.1353   20.4167 C   0  0  0  0  0  0  0  0  0  0  0  0
    8.1431    7.6829   21.9046 C   0  0  0  0  0  0  0  0  0  0  0  0
    7.7796   10.1314   21.5115 N   0  0  0  0  0  0  0  0  0  0  0  0
    9.2768    5.6183   21.4437 C   0  0  0  0  0  0  0  0  0  0  0  0
    8.6315    7.7322   23.1768 C   0  0  0  0  0  0  0  0  0  0  0  0
   13.0537    9.9821   20.5781 C   0  0  0  0  0  0  0  0  0  0  0  0
   10.3850    4.6575   23.2386 O   0  0  0  0  0  0  0  0  0  0  0  0
    4.2069    6.8450   20.7994 C   0  0  0  0  0  0  0  0  0  0  0  0
    3.0726   10.1043   19.8522 O   0  0  0  0  0  0  0  0  0  0  0  0
    5.5057    7.1196   21.1155 C   0  0  0  0  0  0  0  0  0  0  0  0
    7.0367   11.0229   21.9948 O   0  0  0  0  0  0  0  0  0  0  0  0
  1  8  4  0
  1 12  4  0
  2  9  1  0
  2 11  4  0
  2 25  4  0
  3 12  4  0
  3 14  1  0
  3 23  4  0
  4 13  4  0
  4 21  4  0
  4 24  1  0
  5  8  4  0
  5 23  4  0
  6 18  2  0
  7 15  4  0
  7 16  1  0
  7 27  4  0
  8 18  1  0
 10 18  1  0
 10 20  1  0
 11 15  4  0
 11 26  1  0
 13 22  4  0
 16 19  1  0
 16 20  2  0
 17 19  4  0
 17 21  4  0
 19 22  4  0
 20 28  1  0
 25 27  4  0
M  END
$$$$

 Created by Python create_sdf_string function

 28 30  0  0  0  0  0  0  0  0999 V2000
   11.4592   11.2893   18.7941 C   0  0  0  0  0  0  0  0  0  0  0  0
    3.4202    7.9009   20.3866 C   0  0  0  0  0  0  0  0  0  0  0  0
   13.5280   10.3522   19.3586 C   0  0  0  0  0  0  0  0  0  0  0  0
    9.6923    5.6468   22.7891 C   0  0  0  0  0  0  0  0  0  0  0  0
   11.7756   10.2554   20.8841 N   0  0  0  0  0  0  0  0  0  0  0  0
    8.9876   11.9370   19.8757 O   0  0  0  0  0  0  0  0  0  0  0  0
    6.0167    8.4478   21.1089 C   0  0  0  0  0  0  0  0  0  0  0  0
   11.0002   10.8890   20.0262 C   0  0  0  0  0  0  0  0  0  0  0  0
    2.1721    7.7393   20.0315 O   0  0  0  0  0  0  0  0  0  0  0  0
    9.1107   10.3880   21.3769 N   0  0  0  0  0  0  0  0  0  0  0  0
    3.9102    9.2008   20.3124 C   0  0  0  0  0  0  0  0  0  0  0  0
   12.7292   10.9960   18.4597 C   0  0  0  0  0  0  0  0  0  0  0  0
    9.3798    6.6793   23.6625 C   0  0  0  0  0  0  0  0  0  0  0  0
   14.7425   10.0739   19.0802 O   0  0  0  0  0  0  0  0  0  0  0  0
    5.1894    9.4673   20.7118 C   0  0  0  0  0  0  0  0  0  0  0  0
    7.3773    8.8224   21.4870 C   0  0  0  0  0  0  0  0  0  0  0  0
    8.4391    6.6439   21.0235 C   0  0  0  0  0  0  0  0  0  0  0  0
    9.6494   11.1353   20.4167 C   0  0  0  0  0  0  0  0  0  0  0  0
    8.1431    7.6829   21.9046 C   0  0  0  0  0  0  0  0  0  0  0  0
    7.7796   10.1314   21.5115 N   0  0  0  0  0  0  0  0  0  0  0  0
    9.2768    5.6183   21.4437 C   0  0  0  0  0  0  0  0  0  0  0  0
    8.6315    7.7322   23.1768 C   0  0  0  0  0  0  0  0  0  0  0  0
   13.0537    9.9821   20.5781 C   0  0  0  0  0  0  0  0  0  0  0  0
   10.3850    4.6575   23.2386 O   0  0  0  0  0  0  0  0  0  0  0  0
    4.2069    6.8450   20.7994 C   0  0  0  0  0  0  0  0  0  0  0  0
    3.0726   10.1043   19.8522 O   0  0  0  0  0  0  0  0  0  0  0  0
    5.5057    7.1196   21.1155 C   0  0  0  0  0  0  0  0  0  0  0  0
    7.0367   11.0229   21.9948 O   0  0  0  0  0  0  0  0  0  0  0  0
  1  8  4  0
  1 12  4  0
  2  9  1  0
  2 11  4  0
  2 25  4  0
  3 12  4  0
  3 14  1  0
  3 23  4  0
  4 13  4  0
  4 21  4  0
  4 24  1  0
  5  8  4  0
  5 23  4  0
  6 18  2  0
  7 15  4  0
  7 16  1  0
  7 27  4  0
  8 18  1  0
 10 18  1  0
 10 20  1  0
 11 15  4  0
 11 26  1  0
 13 22  4  0
 16 19  1  0
 16 20  2  0
 17 19  4  0
 17 21  4  0
 19 22  4  0
 20 28  1  0
 25 27  4  0
M  END
$$$$

 Created by Python create_sdf_string function

 28 30  0  0  0  0  0  0  0  0999 V2000
   11.4592   11.2893   18.7941 C   0  0  0  0  0  0  0  0  0  0  0  0
    3.4202    7.9009   20.3866 C   0  0  0  0  0  0  0  0  0  0  0  0
   13.5280   10.3522   19.3586 C   0  0  0  0  0  0  0  0  0  0  0  0
    9.6923    5.6468   22.7891 C   0  0  0  0  0  0  0  0  0  0  0  0
   11.7756   10.2554   20.8841 N   0  0  0  0  0  0  0  0  0  0  0  0
    8.9876   11.9370   19.8757 O   0  0  0  0  0  0  0  0  0  0  0  0
    6.0167    8.4478   21.1089 C   0  0  0  0  0  0  0  0  0  0  0  0
   11.0002   10.8890   20.0262 C   0  0  0  0  0  0  0  0  0  0  0  0
    2.1721    7.7393   20.0315 O   0  0  0  0  0  0  0  0  0  0  0  0
    9.1107   10.3880   21.3769 N   0  0  0  0  0  0  0  0  0  0  0  0
    3.9102    9.2008   20.3124 C   0  0  0  0  0  0  0  0  0  0  0  0
   12.7292   10.9960   18.4597 C   0  0  0  0  0  0  0  0  0  0  0  0
    9.3798    6.6793   23.6625 C   0  0  0  0  0  0  0  0  0  0  0  0
   14.7425   10.0739   19.0802 O   0  0  0  0  0  0  0  0  0  0  0  0
    5.1894    9.4673   20.7118 C   0  0  0  0  0  0  0  0  0  0  0  0
    7.3773    8.8224   21.4870 C   0  0  0  0  0  0  0  0  0  0  0  0
    8.4391    6.6439   21.0235 C   0  0  0  0  0  0  0  0  0  0  0  0
    9.6494   11.1353   20.4167 C   0  0  0  0  0  0  0  0  0  0  0  0
    8.1431    7.6829   21.9046 C   0  0  0  0  0  0  0  0  0  0  0  0
    7.7796   10.1314   21.5115 N   0  0  0  0  0  0  0  0  0  0  0  0
    9.2768    5.6183   21.4437 C   0  0  0  0  0  0  0  0  0  0  0  0
    8.6315    7.7322   23.1768 C   0  0  0  0  0  0  0  0  0  0  0  0
   13.0537    9.9821   20.5781 C   0  0  0  0  0  0  0  0  0  0  0  0
   10.3850    4.6575   23.2386 O   0  0  0  0  0  0  0  0  0  0  0  0
    4.2069    6.8450   20.7994 C   0  0  0  0  0  0  0  0  0  0  0  0
    3.0726   10.1043   19.8522 O   0  0  0  0  0  0  0  0  0  0  0  0
    5.5057    7.1196   21.1155 C   0  0  0  0  0  0  0  0  0  0  0  0
    7.0367   11.0229   21.9948 O   0  0  0  0  0  0  0  0  0  0  0  0
  1  8  4  0
  1 12  4  0
  2  9  1  0
  2 11  4  0
  2 25  4  0
  3 12  4  0
  3 14  1  0
  3 23  4  0
  4 13  4  0
  4 21  4  0
  4 24  1  0
  5  8  4  0
  5 23  4  0
  6 18  2  0
  7 15  4  0
  7 16  1  0
  7 27  4  0
  8 18  1  0
 10 18  1  0
 10 20  1  0
 11 15  4  0
 11 26  1  0
 13 22  4  0
 16 19  1  0
 16 20  2  0
 17 19  4  0
 17 21  4  0
 19 22  4  0
 20 28  1  0
 25 27  4  0
M  END
$$$$

 Created by Python create_sdf_string function

 28 30  0  0  0  0  0  0  0  0999 V2000
   11.4592   11.2893   18.7941 C   0  0  0  0  0  0  0  0  0  0  0  0
    3.4202    7.9009   20.3866 C   0  0  0  0  0  0  0  0  0  0  0  0
   13.5280   10.3522   19.3586 C   0  0  0  0  0  0  0  0  0  0  0  0
    9.6923    5.6468   22.7891 C   0  0  0  0  0  0  0  0  0  0  0  0
   11.7756   10.2554   20.8841 N   0  0  0  0  0  0  0  0  0  0  0  0
    8.9876   11.9370   19.8757 O   0  0  0  0  0  0  0  0  0  0  0  0
    6.0167    8.4478   21.1089 C   0  0  0  0  0  0  0  0  0  0  0  0
   11.0002   10.8890   20.0262 C   0  0  0  0  0  0  0  0  0  0  0  0
    2.1721    7.7393   20.0315 O   0  0  0  0  0  0  0  0  0  0  0  0
    9.1107   10.3880   21.3769 N   0  0  0  0  0  0  0  0  0  0  0  0
    3.9102    9.2008   20.3124 C   0  0  0  0  0  0  0  0  0  0  0  0
   12.7292   10.9960   18.4597 C   0  0  0  0  0  0  0  0  0  0  0  0
    9.3798    6.6793   23.6625 C   0  0  0  0  0  0  0  0  0  0  0  0
   14.7425   10.0739   19.0802 O   0  0  0  0  0  0  0  0  0  0  0  0
    5.1894    9.4673   20.7118 C   0  0  0  0  0  0  0  0  0  0  0  0
    7.3773    8.8224   21.4870 C   0  0  0  0  0  0  0  0  0  0  0  0
    8.4391    6.6439   21.0235 C   0  0  0  0  0  0  0  0  0  0  0  0
    9.6494   11.1353   20.4167 C   0  0  0  0  0  0  0  0  0  0  0  0
    8.1431    7.6829   21.9046 C   0  0  0  0  0  0  0  0  0  0  0  0
    7.7796   10.1314   21.5115 N   0  0  0  0  0  0  0  0  0  0  0  0
    9.2768    5.6183   21.4437 C   0  0  0  0  0  0  0  0  0  0  0  0
    8.6315    7.7322   23.1768 C   0  0  0  0  0  0  0  0  0  0  0  0
   13.0537    9.9821   20.5781 C   0  0  0  0  0  0  0  0  0  0  0  0
   10.3850    4.6575   23.2386 O   0  0  0  0  0  0  0  0  0  0  0  0
    4.2069    6.8450   20.7994 C   0  0  0  0  0  0  0  0  0  0  0  0
    3.0726   10.1043   19.8522 O   0  0  0  0  0  0  0  0  0  0  0  0
    5.5057    7.1196   21.1155 C   0  0  0  0  0  0  0  0  0  0  0  0
    7.0367   11.0229   21.9948 O   0  0  0  0  0  0  0  0  0  0  0  0
  1  8  4  0
  1 12  4  0
  2  9  1  0
  2 11  4  0
  2 25  4  0
  3 12  4  0
  3 14  1  0
  3 23  4  0
  4 13  4  0
  4 21  4  0
  4 24  1  0
  5  8  4  0
  5 23  4  0
  6 18  2  0
  7 15  4  0
  7 16  1  0
  7 27  4  0
  8 18  1  0
 10 18  1  0
 10 20  1  0
 11 15  4  0
 11 26  1  0
 13 22  4  0
 16 19  1  0
 16 20  2  0
 17 19  4  0
 17 21  4  0
 19 22  4  0
 20 28  1  0
 25 27  4  0
M  END
$$$$

 Created by Python create_sdf_string function

 28 30  0  0  0  0  0  0  0  0999 V2000
   11.4592   11.2893   18.7941 C   0  0  0  0  0  0  0  0  0  0  0  0
    3.4202    7.9009   20.3866 C   0  0  0  0  0  0  0  0  0  0  0  0
   13.5280   10.3522   19.3586 C   0  0  0  0  0  0  0  0  0  0  0  0
    9.6923    5.6468   22.7891 C   0  0  0  0  0  0  0  0  0  0  0  0
   11.7756   10.2554   20.8841 N   0  0  0  0  0  0  0  0  0  0  0  0
    8.9876   11.9370   19.8757 O   0  0  0  0  0  0  0  0  0  0  0  0
    6.0167    8.4478   21.1089 C   0  0  0  0  0  0  0  0  0  0  0  0
   11.0002   10.8890   20.0262 C   0  0  0  0  0  0  0  0  0  0  0  0
    2.1721    7.7393   20.0315 O   0  0  0  0  0  0  0  0  0  0  0  0
    9.1107   10.3880   21.3769 N   0  0  0  0  0  0  0  0  0  0  0  0
    3.9102    9.2008   20.3124 C   0  0  0  0  0  0  0  0  0  0  0  0
   12.7292   10.9960   18.4597 C   0  0  0  0  0  0  0  0  0  0  0  0
    9.3798    6.6793   23.6625 C   0  0  0  0  0  0  0  0  0  0  0  0
   14.7425   10.0739   19.0802 O   0  0  0  0  0  0  0  0  0  0  0  0
    5.1894    9.4673   20.7118 C   0  0  0  0  0  0  0  0  0  0  0  0
    7.3773    8.8224   21.4870 C   0  0  0  0  0  0  0  0  0  0  0  0
    8.4391    6.6439   21.0235 C   0  0  0  0  0  0  0  0  0  0  0  0
    9.6494   11.1353   20.4167 C   0  0  0  0  0  0  0  0  0  0  0  0
    8.1431    7.6829   21.9046 C   0  0  0  0  0  0  0  0  0  0  0  0
    7.7796   10.1314   21.5115 N   0  0  0  0  0  0  0  0  0  0  0  0
    9.2768    5.6183   21.4437 C   0  0  0  0  0  0  0  0  0  0  0  0
    8.6315    7.7322   23.1768 C   0  0  0  0  0  0  0  0  0  0  0  0
   13.0537    9.9821   20.5781 C   0  0  0  0  0  0  0  0  0  0  0  0
   10.3850    4.6575   23.2386 O   0  0  0  0  0  0  0  0  0  0  0  0
    4.2069    6.8450   20.7994 C   0  0  0  0  0  0  0  0  0  0  0  0
    3.0726   10.1043   19.8522 O   0  0  0  0  0  0  0  0  0  0  0  0
    5.5057    7.1196   21.1155 C   0  0  0  0  0  0  0  0  0  0  0  0
    7.0367   11.0229   21.9948 O   0  0  0  0  0  0  0  0  0  0  0  0
  1  8  4  0
  1 12  4  0
  2  9  1  0
  2 11  4  0
  2 25  4  0
  3 12  4  0
  3 14  1  0
  3 23  4  0
  4 13  4  0
  4 21  4  0
  4 24  1  0
  5  8  4  0
  5 23  4  0
  6 18  2  0
  7 15  4  0
  7 16  1  0
  7 27  4  0
  8 18  1  0
 10 18  1  0
 10 20  1  0
 11 15  4  0
 11 26  1  0
 13 22  4  0
 16 19  1  0
 16 20  2  0
 17 19  4  0
 17 21  4  0
 19 22  4  0
 20 28  1  0
 25 27  4  0
M  END
$$$$

 Created by Python create_sdf_string function

 28 30  0  0  0  0  0  0  0  0999 V2000
   11.4592   11.2893   18.7941 C   0  0  0  0  0  0  0  0  0  0  0  0
    3.4202    7.9009   20.3866 C   0  0  0  0  0  0  0  0  0  0  0  0
   13.5280   10.3522   19.3586 C   0  0  0  0  0  0  0  0  0  0  0  0
    9.6923    5.6468   22.7891 C   0  0  0  0  0  0  0  0  0  0  0  0
   11.7756   10.2554   20.8841 N   0  0  0  0  0  0  0  0  0  0  0  0
    8.9876   11.9370   19.8757 O   0  0  0  0  0  0  0  0  0  0  0  0
    6.0167    8.4478   21.1089 C   0  0  0  0  0  0  0  0  0  0  0  0
   11.0002   10.8890   20.0262 C   0  0  0  0  0  0  0  0  0  0  0  0
    2.1721    7.7393   20.0315 O   0  0  0  0  0  0  0  0  0  0  0  0
    9.1107   10.3880   21.3769 N   0  0  0  0  0  0  0  0  0  0  0  0
    3.9102    9.2008   20.3124 C   0  0  0  0  0  0  0  0  0  0  0  0
   12.7292   10.9960   18.4597 C   0  0  0  0  0  0  0  0  0  0  0  0
    9.3798    6.6793   23.6625 C   0  0  0  0  0  0  0  0  0  0  0  0
   14.7425   10.0739   19.0802 O   0  0  0  0  0  0  0  0  0  0  0  0
    5.1894    9.4673   20.7118 C   0  0  0  0  0  0  0  0  0  0  0  0
    7.3773    8.8224   21.4870 C   0  0  0  0  0  0  0  0  0  0  0  0
    8.4391    6.6439   21.0235 C   0  0  0  0  0  0  0  0  0  0  0  0
    9.6494   11.1353   20.4167 C   0  0  0  0  0  0  0  0  0  0  0  0
    8.1431    7.6829   21.9046 C   0  0  0  0  0  0  0  0  0  0  0  0
    7.7796   10.1314   21.5115 N   0  0  0  0  0  0  0  0  0  0  0  0
    9.2768    5.6183   21.4437 C   0  0  0  0  0  0  0  0  0  0  0  0
    8.6315    7.7322   23.1768 C   0  0  0  0  0  0  0  0  0  0  0  0
   13.0537    9.9821   20.5781 C   0  0  0  0  0  0  0  0  0  0  0  0
   10.3850    4.6575   23.2386 O   0  0  0  0  0  0  0  0  0  0  0  0
    4.2069    6.8450   20.7994 C   0  0  0  0  0  0  0  0  0  0  0  0
    3.0726   10.1043   19.8522 O   0  0  0  0  0  0  0  0  0  0  0  0
    5.5057    7.1196   21.1155 C   0  0  0  0  0  0  0  0  0  0  0  0
    7.0367   11.0229   21.9948 O   0  0  0  0  0  0  0  0  0  0  0  0
  1  8  4  0
  1 12  4  0
  2  9  1  0
  2 11  4  0
  2 25  4  0
  3 12  4  0
  3 14  1  0
  3 23  4  0
  4 13  4  0
  4 21  4  0
  4 24  1  0
  5  8  4  0
  5 23  4  0
  6 18  2  0
  7 15  4  0
  7 16  1  0
  7 27  4  0
  8 18  1  0
 10 18  1  0
 10 20  1  0
 11 15  4  0
 11 26  1  0
 13 22  4  0
 16 19  1  0
 16 20  2  0
 17 19  4  0
 17 21  4  0
 19 22  4  0
 20 28  1  0
 25 27  4  0
M  END
$$$$

 Created by Python create_sdf_string function

 28 30  0  0  0  0  0  0  0  0999 V2000
   11.4592   11.2893   18.7941 C   0  0  0  0  0  0  0  0  0  0  0  0
    3.4202    7.9009   20.3866 C   0  0  0  0  0  0  0  0  0  0  0  0
   13.5280   10.3522   19.3586 C   0  0  0  0  0  0  0  0  0  0  0  0
    9.6923    5.6468   22.7891 C   0  0  0  0  0  0  0  0  0  0  0  0
   11.7756   10.2554   20.8841 N   0  0  0  0  0  0  0  0  0  0  0  0
    8.9876   11.9370   19.8757 O   0  0  0  0  0  0  0  0  0  0  0  0
    6.0167    8.4478   21.1089 C   0  0  0  0  0  0  0  0  0  0  0  0
   11.0002   10.8890   20.0262 C   0  0  0  0  0  0  0  0  0  0  0  0
    2.1721    7.7393   20.0315 O   0  0  0  0  0  0  0  0  0  0  0  0
    9.1107   10.3880   21.3769 N   0  0  0  0  0  0  0  0  0  0  0  0
    3.9102    9.2008   20.3124 C   0  0  0  0  0  0  0  0  0  0  0  0
   12.7292   10.9960   18.4597 C   0  0  0  0  0  0  0  0  0  0  0  0
    9.3798    6.6793   23.6625 C   0  0  0  0  0  0  0  0  0  0  0  0
   14.7425   10.0739   19.0802 O   0  0  0  0  0  0  0  0  0  0  0  0
    5.1894    9.4673   20.7118 C   0  0  0  0  0  0  0  0  0  0  0  0
    7.3773    8.8224   21.4870 C   0  0  0  0  0  0  0  0  0  0  0  0
    8.4391    6.6439   21.0235 C   0  0  0  0  0  0  0  0  0  0  0  0
    9.6494   11.1353   20.4167 C   0  0  0  0  0  0  0  0  0  0  0  0
    8.1431    7.6829   21.9046 C   0  0  0  0  0  0  0  0  0  0  0  0
    7.7796   10.1314   21.5115 N   0  0  0  0  0  0  0  0  0  0  0  0
    9.2768    5.6183   21.4437 C   0  0  0  0  0  0  0  0  0  0  0  0
    8.6315    7.7322   23.1768 C   0  0  0  0  0  0  0  0  0  0  0  0
   13.0537    9.9821   20.5781 C   0  0  0  0  0  0  0  0  0  0  0  0
   10.3850    4.6575   23.2386 O   0  0  0  0  0  0  0  0  0  0  0  0
    4.2069    6.8450   20.7994 C   0  0  0  0  0  0  0  0  0  0  0  0
    3.0726   10.1043   19.8522 O   0  0  0  0  0  0  0  0  0  0  0  0
    5.5057    7.1196   21.1155 C   0  0  0  0  0  0  0  0  0  0  0  0
    7.0367   11.0229   21.9948 O   0  0  0  0  0  0  0  0  0  0  0  0
  1  8  4  0
  1 12  4  0
  2  9  1  0
  2 11  4  0
  2 25  4  0
  3 12  4  0
  3 14  1  0
  3 23  4  0
  4 13  4  0
  4 21  4  0
  4 24  1  0
  5  8  4  0
  5 23  4  0
  6 18  2  0
  7 15  4  0
  7 16  1  0
  7 27  4  0
  8 18  1  0
 10 18  1  0
 10 20  1  0
 11 15  4  0
 11 26  1  0
 13 22  4  0
 16 19  1  0
 16 20  2  0
 17 19  4  0
 17 21  4  0
 19 22  4  0
 20 28  1  0
 25 27  4  0
M  END
$$$$

 Created by Python create_sdf_string function

 28 30  0  0  0  0  0  0  0  0999 V2000
   11.4592   11.2893   18.7941 C   0  0  0  0  0  0  0  0  0  0  0  0
    3.4202    7.9009   20.3866 C   0  0  0  0  0  0  0  0  0  0  0  0
   13.5280   10.3522   19.3586 C   0  0  0  0  0  0  0  0  0  0  0  0
    9.6923    5.6468   22.7891 C   0  0  0  0  0  0  0  0  0  0  0  0
   11.7756   10.2554   20.8841 N   0  0  0  0  0  0  0  0  0  0  0  0
    8.9876   11.9370   19.8757 O   0  0  0  0  0  0  0  0  0  0  0  0
    6.0167    8.4478   21.1089 C   0  0  0  0  0  0  0  0  0  0  0  0
   11.0002   10.8890   20.0262 C   0  0  0  0  0  0  0  0  0  0  0  0
    2.1721    7.7393   20.0315 O   0  0  0  0  0  0  0  0  0  0  0  0
    9.1107   10.3880   21.3769 N   0  0  0  0  0  0  0  0  0  0  0  0
    3.9102    9.2008   20.3124 C   0  0  0  0  0  0  0  0  0  0  0  0
   12.7292   10.9960   18.4597 C   0  0  0  0  0  0  0  0  0  0  0  0
    9.3798    6.6793   23.6625 C   0  0  0  0  0  0  0  0  0  0  0  0
   14.7425   10.0739   19.0802 O   0  0  0  0  0  0  0  0  0  0  0  0
    5.1894    9.4673   20.7118 C   0  0  0  0  0  0  0  0  0  0  0  0
    7.3773    8.8224   21.4870 C   0  0  0  0  0  0  0  0  0  0  0  0
    8.4391    6.6439   21.0235 C   0  0  0  0  0  0  0  0  0  0  0  0
    9.6494   11.1353   20.4167 C   0  0  0  0  0  0  0  0  0  0  0  0
    8.1431    7.6829   21.9046 C   0  0  0  0  0  0  0  0  0  0  0  0
    7.7796   10.1314   21.5115 N   0  0  0  0  0  0  0  0  0  0  0  0
    9.2768    5.6183   21.4437 C   0  0  0  0  0  0  0  0  0  0  0  0
    8.6315    7.7322   23.1768 C   0  0  0  0  0  0  0  0  0  0  0  0
   13.0537    9.9821   20.5781 C   0  0  0  0  0  0  0  0  0  0  0  0
   10.3850    4.6575   23.2386 O   0  0  0  0  0  0  0  0  0  0  0  0
    4.2069    6.8450   20.7994 C   0  0  0  0  0  0  0  0  0  0  0  0
    3.0726   10.1043   19.8522 O   0  0  0  0  0  0  0  0  0  0  0  0
    5.5057    7.1196   21.1155 C   0  0  0  0  0  0  0  0  0  0  0  0
    7.0367   11.0229   21.9948 O   0  0  0  0  0  0  0  0  0  0  0  0
  1  8  4  0
  1 12  4  0
  2  9  1  0
  2 11  4  0
  2 25  4  0
  3 12  4  0
  3 14  1  0
  3 23  4  0
  4 13  4  0
  4 21  4  0
  4 24  1  0
  5  8  4  0
  5 23  4  0
  6 18  2  0
  7 15  4  0
  7 16  1  0
  7 27  4  0
  8 18  1  0
 10 18  1  0
 10 20  1  0
 11 15  4  0
 11 26  1  0
 13 22  4  0
 16 19  1  0
 16 20  2  0
 17 19  4  0
 17 21  4  0
 19 22  4  0
 20 28  1  0
 25 27  4  0
M  END
$$$$

 Created by Python create_sdf_string function

 28 30  0  0  0  0  0  0  0  0999 V2000
   11.4592   11.2893   18.7941 C   0  0  0  0  0  0  0  0  0  0  0  0
    3.4202    7.9009   20.3866 C   0  0  0  0  0  0  0  0  0  0  0  0
   13.5280   10.3522   19.3586 C   0  0  0  0  0  0  0  0  0  0  0  0
    9.6923    5.6468   22.7891 C   0  0  0  0  0  0  0  0  0  0  0  0
   11.7756   10.2554   20.8841 N   0  0  0  0  0  0  0  0  0  0  0  0
    8.9876   11.9370   19.8757 O   0  0  0  0  0  0  0  0  0  0  0  0
    6.0167    8.4478   21.1089 C   0  0  0  0  0  0  0  0  0  0  0  0
   11.0002   10.8890   20.0262 C   0  0  0  0  0  0  0  0  0  0  0  0
    2.1721    7.7393   20.0315 O   0  0  0  0  0  0  0  0  0  0  0  0
    9.1107   10.3880   21.3769 N   0  0  0  0  0  0  0  0  0  0  0  0
    3.9102    9.2008   20.3124 C   0  0  0  0  0  0  0  0  0  0  0  0
   12.7292   10.9960   18.4597 C   0  0  0  0  0  0  0  0  0  0  0  0
    9.3798    6.6793   23.6625 C   0  0  0  0  0  0  0  0  0  0  0  0
   14.7425   10.0739   19.0802 O   0  0  0  0  0  0  0  0  0  0  0  0
    5.1894    9.4673   20.7118 C   0  0  0  0  0  0  0  0  0  0  0  0
    7.3773    8.8224   21.4870 C   0  0  0  0  0  0  0  0  0  0  0  0
    8.4391    6.6439   21.0235 C   0  0  0  0  0  0  0  0  0  0  0  0
    9.6494   11.1353   20.4167 C   0  0  0  0  0  0  0  0  0  0  0  0
    8.1431    7.6829   21.9046 C   0  0  0  0  0  0  0  0  0  0  0  0
    7.7796   10.1314   21.5115 N   0  0  0  0  0  0  0  0  0  0  0  0
    9.2768    5.6183   21.4437 C   0  0  0  0  0  0  0  0  0  0  0  0
    8.6315    7.7322   23.1768 C   0  0  0  0  0  0  0  0  0  0  0  0
   13.0537    9.9821   20.5781 C   0  0  0  0  0  0  0  0  0  0  0  0
   10.3850    4.6575   23.2386 O   0  0  0  0  0  0  0  0  0  0  0  0
    4.2069    6.8450   20.7994 C   0  0  0  0  0  0  0  0  0  0  0  0
    3.0726   10.1043   19.8522 O   0  0  0  0  0  0  0  0  0  0  0  0
    5.5057    7.1196   21.1155 C   0  0  0  0  0  0  0  0  0  0  0  0
    7.0367   11.0229   21.9948 O   0  0  0  0  0  0  0  0  0  0  0  0
  1  8  4  0
  1 12  4  0
  2  9  1  0
  2 11  4  0
  2 25  4  0
  3 12  4  0
  3 14  1  0
  3 23  4  0
  4 13  4  0
  4 21  4  0
  4 24  1  0
  5  8  4  0
  5 23  4  0
  6 18  2  0
  7 15  4  0
  7 16  1  0
  7 27  4  0
  8 18  1  0
 10 18  1  0
 10 20  1  0
 11 15  4  0
 11 26  1  0
 13 22  4  0
 16 19  1  0
 16 20  2  0
 17 19  4  0
 17 21  4  0
 19 22  4  0
 20 28  1  0
 25 27  4  0
M  END
$$$$

 Created by Python create_sdf_string function

 28 30  0  0  0  0  0  0  0  0999 V2000
   11.4592   11.2893   18.7941 C   0  0  0  0  0  0  0  0  0  0  0  0
    3.4202    7.9009   20.3866 C   0  0  0  0  0  0  0  0  0  0  0  0
   13.5280   10.3522   19.3586 C   0  0  0  0  0  0  0  0  0  0  0  0
    9.6923    5.6468   22.7891 C   0  0  0  0  0  0  0  0  0  0  0  0
   11.7756   10.2554   20.8841 N   0  0  0  0  0  0  0  0  0  0  0  0
    8.9876   11.9370   19.8757 O   0  0  0  0  0  0  0  0  0  0  0  0
    6.0167    8.4478   21.1089 C   0  0  0  0  0  0  0  0  0  0  0  0
   11.0002   10.8890   20.0262 C   0  0  0  0  0  0  0  0  0  0  0  0
    2.1721    7.7393   20.0315 O   0  0  0  0  0  0  0  0  0  0  0  0
    9.1107   10.3880   21.3769 N   0  0  0  0  0  0  0  0  0  0  0  0
    3.9102    9.2008   20.3124 C   0  0  0  0  0  0  0  0  0  0  0  0
   12.7292   10.9960   18.4597 C   0  0  0  0  0  0  0  0  0  0  0  0
    9.3798    6.6793   23.6625 C   0  0  0  0  0  0  0  0  0  0  0  0
   14.7425   10.0739   19.0802 O   0  0  0  0  0  0  0  0  0  0  0  0
    5.1894    9.4673   20.7118 C   0  0  0  0  0  0  0  0  0  0  0  0
    7.3773    8.8224   21.4870 C   0  0  0  0  0  0  0  0  0  0  0  0
    8.4391    6.6439   21.0235 C   0  0  0  0  0  0  0  0  0  0  0  0
    9.6494   11.1353   20.4167 C   0  0  0  0  0  0  0  0  0  0  0  0
    8.1431    7.6829   21.9046 C   0  0  0  0  0  0  0  0  0  0  0  0
    7.7796   10.1314   21.5115 N   0  0  0  0  0  0  0  0  0  0  0  0
    9.2768    5.6183   21.4437 C   0  0  0  0  0  0  0  0  0  0  0  0
    8.6315    7.7322   23.1768 C   0  0  0  0  0  0  0  0  0  0  0  0
   13.0537    9.9821   20.5781 C   0  0  0  0  0  0  0  0  0  0  0  0
   10.3850    4.6575   23.2386 O   0  0  0  0  0  0  0  0  0  0  0  0
    4.2069    6.8450   20.7994 C   0  0  0  0  0  0  0  0  0  0  0  0
    3.0726   10.1043   19.8522 O   0  0  0  0  0  0  0  0  0  0  0  0
    5.5057    7.1196   21.1155 C   0  0  0  0  0  0  0  0  0  0  0  0
    7.0367   11.0229   21.9948 O   0  0  0  0  0  0  0  0  0  0  0  0
  1  8  4  0
  1 12  4  0
  2  9  1  0
  2 11  4  0
  2 25  4  0
  3 12  4  0
  3 14  1  0
  3 23  4  0
  4 13  4  0
  4 21  4  0
  4 24  1  0
  5  8  4  0
  5 23  4  0
  6 18  2  0
  7 15  4  0
  7 16  1  0
  7 27  4  0
  8 18  1  0
 10 18  1  0
 10 20  1  0
 11 15  4  0
 11 26  1  0
 13 22  4  0
 16 19  1  0
 16 20  2  0
 17 19  4  0
 17 21  4  0
 19 22  4  0
 20 28  1  0
 25 27  4  0
M  END
$$$$

 Created by Python create_sdf_string function

 28 30  0  0  0  0  0  0  0  0999 V2000
   11.4592   11.2893   18.7941 C   0  0  0  0  0  0  0  0  0  0  0  0
    3.4202    7.9009   20.3866 C   0  0  0  0  0  0  0  0  0  0  0  0
   13.5280   10.3522   19.3586 C   0  0  0  0  0  0  0  0  0  0  0  0
    9.6923    5.6468   22.7891 C   0  0  0  0  0  0  0  0  0  0  0  0
   11.7756   10.2554   20.8841 N   0  0  0  0  0  0  0  0  0  0  0  0
    8.9876   11.9370   19.8757 O   0  0  0  0  0  0  0  0  0  0  0  0
    6.0167    8.4478   21.1089 C   0  0  0  0  0  0  0  0  0  0  0  0
   11.0002   10.8890   20.0262 C   0  0  0  0  0  0  0  0  0  0  0  0
    2.1721    7.7393   20.0315 O   0  0  0  0  0  0  0  0  0  0  0  0
    9.1107   10.3880   21.3769 N   0  0  0  0  0  0  0  0  0  0  0  0
    3.9102    9.2008   20.3124 C   0  0  0  0  0  0  0  0  0  0  0  0
   12.7292   10.9960   18.4597 C   0  0  0  0  0  0  0  0  0  0  0  0
    9.3798    6.6793   23.6625 C   0  0  0  0  0  0  0  0  0  0  0  0
   14.7425   10.0739   19.0802 O   0  0  0  0  0  0  0  0  0  0  0  0
    5.1894    9.4673   20.7118 C   0  0  0  0  0  0  0  0  0  0  0  0
    7.3773    8.8224   21.4870 C   0  0  0  0  0  0  0  0  0  0  0  0
    8.4391    6.6439   21.0235 C   0  0  0  0  0  0  0  0  0  0  0  0
    9.6494   11.1353   20.4167 C   0  0  0  0  0  0  0  0  0  0  0  0
    8.1431    7.6829   21.9046 C   0  0  0  0  0  0  0  0  0  0  0  0
    7.7796   10.1314   21.5115 N   0  0  0  0  0  0  0  0  0  0  0  0
    9.2768    5.6183   21.4437 C   0  0  0  0  0  0  0  0  0  0  0  0
    8.6315    7.7322   23.1768 C   0  0  0  0  0  0  0  0  0  0  0  0
   13.0537    9.9821   20.5781 C   0  0  0  0  0  0  0  0  0  0  0  0
   10.3850    4.6575   23.2386 O   0  0  0  0  0  0  0  0  0  0  0  0
    4.2069    6.8450   20.7994 C   0  0  0  0  0  0  0  0  0  0  0  0
    3.0726   10.1043   19.8522 O   0  0  0  0  0  0  0  0  0  0  0  0
    5.5057    7.1196   21.1155 C   0  0  0  0  0  0  0  0  0  0  0  0
    7.0367   11.0229   21.9948 O   0  0  0  0  0  0  0  0  0  0  0  0
  1  8  4  0
  1 12  4  0
  2  9  1  0
  2 11  4  0
  2 25  4  0
  3 12  4  0
  3 14  1  0
  3 23  4  0
  4 13  4  0
  4 21  4  0
  4 24  1  0
  5  8  4  0
  5 23  4  0
  6 18  2  0
  7 15  4  0
  7 16  1  0
  7 27  4  0
  8 18  1  0
 10 18  1  0
 10 20  1  0
 11 15  4  0
 11 26  1  0
 13 22  4  0
 16 19  1  0
 16 20  2  0
 17 19  4  0
 17 21  4  0
 19 22  4  0
 20 28  1  0
 25 27  4  0
M  END
$$$$

 Created by Python create_sdf_string function

 28 30  0  0  0  0  0  0  0  0999 V2000
   11.4592   11.2893   18.7941 C   0  0  0  0  0  0  0  0  0  0  0  0
    3.4202    7.9009   20.3866 C   0  0  0  0  0  0  0  0  0  0  0  0
   13.5280   10.3522   19.3586 C   0  0  0  0  0  0  0  0  0  0  0  0
    9.6923    5.6468   22.7891 C   0  0  0  0  0  0  0  0  0  0  0  0
   11.7756   10.2554   20.8841 N   0  0  0  0  0  0  0  0  0  0  0  0
    8.9876   11.9370   19.8757 O   0  0  0  0  0  0  0  0  0  0  0  0
    6.0167    8.4478   21.1089 C   0  0  0  0  0  0  0  0  0  0  0  0
   11.0002   10.8890   20.0262 C   0  0  0  0  0  0  0  0  0  0  0  0
    2.1721    7.7393   20.0315 O   0  0  0  0  0  0  0  0  0  0  0  0
    9.1107   10.3880   21.3769 N   0  0  0  0  0  0  0  0  0  0  0  0
    3.9102    9.2008   20.3124 C   0  0  0  0  0  0  0  0  0  0  0  0
   12.7292   10.9960   18.4597 C   0  0  0  0  0  0  0  0  0  0  0  0
    9.3798    6.6793   23.6625 C   0  0  0  0  0  0  0  0  0  0  0  0
   14.7425   10.0739   19.0802 O   0  0  0  0  0  0  0  0  0  0  0  0
    5.1894    9.4673   20.7118 C   0  0  0  0  0  0  0  0  0  0  0  0
    7.3773    8.8224   21.4870 C   0  0  0  0  0  0  0  0  0  0  0  0
    8.4391    6.6439   21.0235 C   0  0  0  0  0  0  0  0  0  0  0  0
    9.6494   11.1353   20.4167 C   0  0  0  0  0  0  0  0  0  0  0  0
    8.1431    7.6829   21.9046 C   0  0  0  0  0  0  0  0  0  0  0  0
    7.7796   10.1314   21.5115 N   0  0  0  0  0  0  0  0  0  0  0  0
    9.2768    5.6183   21.4437 C   0  0  0  0  0  0  0  0  0  0  0  0
    8.6315    7.7322   23.1768 C   0  0  0  0  0  0  0  0  0  0  0  0
   13.0537    9.9821   20.5781 C   0  0  0  0  0  0  0  0  0  0  0  0
   10.3850    4.6575   23.2386 O   0  0  0  0  0  0  0  0  0  0  0  0
    4.2069    6.8450   20.7994 C   0  0  0  0  0  0  0  0  0  0  0  0
    3.0726   10.1043   19.8522 O   0  0  0  0  0  0  0  0  0  0  0  0
    5.5057    7.1196   21.1155 C   0  0  0  0  0  0  0  0  0  0  0  0
    7.0367   11.0229   21.9948 O   0  0  0  0  0  0  0  0  0  0  0  0
  1  8  4  0
  1 12  4  0
  2  9  1  0
  2 11  4  0
  2 25  4  0
  3 12  4  0
  3 14  1  0
  3 23  4  0
  4 13  4  0
  4 21  4  0
  4 24  1  0
  5  8  4  0
  5 23  4  0
  6 18  2  0
  7 15  4  0
  7 16  1  0
  7 27  4  0
  8 18  1  0
 10 18  1  0
 10 20  1  0
 11 15  4  0
 11 26  1  0
 13 22  4  0
 16 19  1  0
 16 20  2  0
 17 19  4  0
 17 21  4  0
 19 22  4  0
 20 28  1  0
 25 27  4  0
M  END
$$$$

 Created by Python create_sdf_string function

 28 30  0  0  0  0  0  0  0  0999 V2000
   11.4592   11.2893   18.7941 C   0  0  0  0  0  0  0  0  0  0  0  0
    3.4202    7.9009   20.3866 C   0  0  0  0  0  0  0  0  0  0  0  0
   13.5280   10.3522   19.3586 C   0  0  0  0  0  0  0  0  0  0  0  0
    9.6923    5.6468   22.7891 C   0  0  0  0  0  0  0  0  0  0  0  0
   11.7756   10.2554   20.8841 N   0  0  0  0  0  0  0  0  0  0  0  0
    8.9876   11.9370   19.8757 O   0  0  0  0  0  0  0  0  0  0  0  0
    6.0167    8.4478   21.1089 C   0  0  0  0  0  0  0  0  0  0  0  0
   11.0002   10.8890   20.0262 C   0  0  0  0  0  0  0  0  0  0  0  0
    2.1721    7.7393   20.0315 O   0  0  0  0  0  0  0  0  0  0  0  0
    9.1107   10.3880   21.3769 N   0  0  0  0  0  0  0  0  0  0  0  0
    3.9102    9.2008   20.3124 C   0  0  0  0  0  0  0  0  0  0  0  0
   12.7292   10.9960   18.4597 C   0  0  0  0  0  0  0  0  0  0  0  0
    9.3798    6.6793   23.6625 C   0  0  0  0  0  0  0  0  0  0  0  0
   14.7425   10.0739   19.0802 O   0  0  0  0  0  0  0  0  0  0  0  0
    5.1894    9.4673   20.7118 C   0  0  0  0  0  0  0  0  0  0  0  0
    7.3773    8.8224   21.4870 C   0  0  0  0  0  0  0  0  0  0  0  0
    8.4391    6.6439   21.0235 C   0  0  0  0  0  0  0  0  0  0  0  0
    9.6494   11.1353   20.4167 C   0  0  0  0  0  0  0  0  0  0  0  0
    8.1431    7.6829   21.9046 C   0  0  0  0  0  0  0  0  0  0  0  0
    7.7796   10.1314   21.5115 N   0  0  0  0  0  0  0  0  0  0  0  0
    9.2768    5.6183   21.4437 C   0  0  0  0  0  0  0  0  0  0  0  0
    8.6315    7.7322   23.1768 C   0  0  0  0  0  0  0  0  0  0  0  0
   13.0537    9.9821   20.5781 C   0  0  0  0  0  0  0  0  0  0  0  0
   10.3850    4.6575   23.2386 O   0  0  0  0  0  0  0  0  0  0  0  0
    4.2069    6.8450   20.7994 C   0  0  0  0  0  0  0  0  0  0  0  0
    3.0726   10.1043   19.8522 O   0  0  0  0  0  0  0  0  0  0  0  0
    5.5057    7.1196   21.1155 C   0  0  0  0  0  0  0  0  0  0  0  0
    7.0367   11.0229   21.9948 O   0  0  0  0  0  0  0  0  0  0  0  0
  1  8  4  0
  1 12  4  0
  2  9  1  0
  2 11  4  0
  2 25  4  0
  3 12  4  0
  3 14  1  0
  3 23  4  0
  4 13  4  0
  4 21  4  0
  4 24  1  0
  5  8  4  0
  5 23  4  0
  6 18  2  0
  7 15  4  0
  7 16  1  0
  7 27  4  0
  8 18  1  0
 10 18  1  0
 10 20  1  0
 11 15  4  0
 11 26  1  0
 13 22  4  0
 16 19  1  0
 16 20  2  0
 17 19  4  0
 17 21  4  0
 19 22  4  0
 20 28  1  0
 25 27  4  0
M  END
$$$$

 Created by Python create_sdf_string function

 28 30  0  0  0  0  0  0  0  0999 V2000
   11.4592   11.2893   18.7941 C   0  0  0  0  0  0  0  0  0  0  0  0
    3.4202    7.9009   20.3866 C   0  0  0  0  0  0  0  0  0  0  0  0
   13.5280   10.3522   19.3586 C   0  0  0  0  0  0  0  0  0  0  0  0
    9.6923    5.6468   22.7891 C   0  0  0  0  0  0  0  0  0  0  0  0
   11.7756   10.2554   20.8841 N   0  0  0  0  0  0  0  0  0  0  0  0
    8.9876   11.9370   19.8757 O   0  0  0  0  0  0  0  0  0  0  0  0
    6.0167    8.4478   21.1089 C   0  0  0  0  0  0  0  0  0  0  0  0
   11.0002   10.8890   20.0262 C   0  0  0  0  0  0  0  0  0  0  0  0
    2.1721    7.7393   20.0315 O   0  0  0  0  0  0  0  0  0  0  0  0
    9.1107   10.3880   21.3769 N   0  0  0  0  0  0  0  0  0  0  0  0
    3.9102    9.2008   20.3124 C   0  0  0  0  0  0  0  0  0  0  0  0
   12.7292   10.9960   18.4597 C   0  0  0  0  0  0  0  0  0  0  0  0
    9.3798    6.6793   23.6625 C   0  0  0  0  0  0  0  0  0  0  0  0
   14.7425   10.0739   19.0802 O   0  0  0  0  0  0  0  0  0  0  0  0
    5.1894    9.4673   20.7118 C   0  0  0  0  0  0  0  0  0  0  0  0
    7.3773    8.8224   21.4870 C   0  0  0  0  0  0  0  0  0  0  0  0
    8.4391    6.6439   21.0235 C   0  0  0  0  0  0  0  0  0  0  0  0
    9.6494   11.1353   20.4167 C   0  0  0  0  0  0  0  0  0  0  0  0
    8.1431    7.6829   21.9046 C   0  0  0  0  0  0  0  0  0  0  0  0
    7.7796   10.1314   21.5115 N   0  0  0  0  0  0  0  0  0  0  0  0
    9.2768    5.6183   21.4437 C   0  0  0  0  0  0  0  0  0  0  0  0
    8.6315    7.7322   23.1768 C   0  0  0  0  0  0  0  0  0  0  0  0
   13.0537    9.9821   20.5781 C   0  0  0  0  0  0  0  0  0  0  0  0
   10.3850    4.6575   23.2386 O   0  0  0  0  0  0  0  0  0  0  0  0
    4.2069    6.8450   20.7994 C   0  0  0  0  0  0  0  0  0  0  0  0
    3.0726   10.1043   19.8522 O   0  0  0  0  0  0  0  0  0  0  0  0
    5.5057    7.1196   21.1155 C   0  0  0  0  0  0  0  0  0  0  0  0
    7.0367   11.0229   21.9948 O   0  0  0  0  0  0  0  0  0  0  0  0
  1  8  4  0
  1 12  4  0
  2  9  1  0
  2 11  4  0
  2 25  4  0
  3 12  4  0
  3 14  1  0
  3 23  4  0
  4 13  4  0
  4 21  4  0
  4 24  1  0
  5  8  4  0
  5 23  4  0
  6 18  2  0
  7 15  4  0
  7 16  1  0
  7 27  4  0
  8 18  1  0
 10 18  1  0
 10 20  1  0
 11 15  4  0
 11 26  1  0
 13 22  4  0
 16 19  1  0
 16 20  2  0
 17 19  4  0
 17 21  4  0
 19 22  4  0
 20 28  1  0
 25 27  4  0
M  END
$$$$

 Created by Python create_sdf_string function

 28 30  0  0  0  0  0  0  0  0999 V2000
   11.4592   11.2893   18.7941 C   0  0  0  0  0  0  0  0  0  0  0  0
    3.4202    7.9009   20.3866 C   0  0  0  0  0  0  0  0  0  0  0  0
   13.5280   10.3522   19.3586 C   0  0  0  0  0  0  0  0  0  0  0  0
    9.6923    5.6468   22.7891 C   0  0  0  0  0  0  0  0  0  0  0  0
   11.7756   10.2554   20.8841 N   0  0  0  0  0  0  0  0  0  0  0  0
    8.9876   11.9370   19.8757 O   0  0  0  0  0  0  0  0  0  0  0  0
    6.0167    8.4478   21.1089 C   0  0  0  0  0  0  0  0  0  0  0  0
   11.0002   10.8890   20.0262 C   0  0  0  0  0  0  0  0  0  0  0  0
    2.1721    7.7393   20.0315 O   0  0  0  0  0  0  0  0  0  0  0  0
    9.1107   10.3880   21.3769 N   0  0  0  0  0  0  0  0  0  0  0  0
    3.9102    9.2008   20.3124 C   0  0  0  0  0  0  0  0  0  0  0  0
   12.7292   10.9960   18.4597 C   0  0  0  0  0  0  0  0  0  0  0  0
    9.3798    6.6793   23.6625 C   0  0  0  0  0  0  0  0  0  0  0  0
   14.7425   10.0739   19.0802 O   0  0  0  0  0  0  0  0  0  0  0  0
    5.1894    9.4673   20.7118 C   0  0  0  0  0  0  0  0  0  0  0  0
    7.3773    8.8224   21.4870 C   0  0  0  0  0  0  0  0  0  0  0  0
    8.4391    6.6439   21.0235 C   0  0  0  0  0  0  0  0  0  0  0  0
    9.6494   11.1353   20.4167 C   0  0  0  0  0  0  0  0  0  0  0  0
    8.1431    7.6829   21.9046 C   0  0  0  0  0  0  0  0  0  0  0  0
    7.7796   10.1314   21.5115 N   0  0  0  0  0  0  0  0  0  0  0  0
    9.2768    5.6183   21.4437 C   0  0  0  0  0  0  0  0  0  0  0  0
    8.6315    7.7322   23.1768 C   0  0  0  0  0  0  0  0  0  0  0  0
   13.0537    9.9821   20.5781 C   0  0  0  0  0  0  0  0  0  0  0  0
   10.3850    4.6575   23.2386 O   0  0  0  0  0  0  0  0  0  0  0  0
    4.2069    6.8450   20.7994 C   0  0  0  0  0  0  0  0  0  0  0  0
    3.0726   10.1043   19.8522 O   0  0  0  0  0  0  0  0  0  0  0  0
    5.5057    7.1196   21.1155 C   0  0  0  0  0  0  0  0  0  0  0  0
    7.0367   11.0229   21.9948 O   0  0  0  0  0  0  0  0  0  0  0  0
  1  8  4  0
  1 12  4  0
  2  9  1  0
  2 11  4  0
  2 25  4  0
  3 12  4  0
  3 14  1  0
  3 23  4  0
  4 13  4  0
  4 21  4  0
  4 24  1  0
  5  8  4  0
  5 23  4  0
  6 18  2  0
  7 15  4  0
  7 16  1  0
  7 27  4  0
  8 18  1  0
 10 18  1  0
 10 20  1  0
 11 15  4  0
 11 26  1  0
 13 22  4  0
 16 19  1  0
 16 20  2  0
 17 19  4  0
 17 21  4  0
 19 22  4  0
 20 28  1  0
 25 27  4  0
M  END
$$$$

 Created by Python create_sdf_string function

 28 30  0  0  0  0  0  0  0  0999 V2000
   11.4592   11.2893   18.7941 C   0  0  0  0  0  0  0  0  0  0  0  0
    3.4202    7.9009   20.3866 C   0  0  0  0  0  0  0  0  0  0  0  0
   13.5280   10.3522   19.3586 C   0  0  0  0  0  0  0  0  0  0  0  0
    9.6923    5.6468   22.7891 C   0  0  0  0  0  0  0  0  0  0  0  0
   11.7756   10.2554   20.8841 N   0  0  0  0  0  0  0  0  0  0  0  0
    8.9876   11.9370   19.8757 O   0  0  0  0  0  0  0  0  0  0  0  0
    6.0167    8.4478   21.1089 C   0  0  0  0  0  0  0  0  0  0  0  0
   11.0002   10.8890   20.0262 C   0  0  0  0  0  0  0  0  0  0  0  0
    2.1721    7.7393   20.0315 O   0  0  0  0  0  0  0  0  0  0  0  0
    9.1107   10.3880   21.3769 N   0  0  0  0  0  0  0  0  0  0  0  0
    3.9102    9.2008   20.3124 C   0  0  0  0  0  0  0  0  0  0  0  0
   12.7292   10.9960   18.4597 C   0  0  0  0  0  0  0  0  0  0  0  0
    9.3798    6.6793   23.6625 C   0  0  0  0  0  0  0  0  0  0  0  0
   14.7425   10.0739   19.0802 O   0  0  0  0  0  0  0  0  0  0  0  0
    5.1894    9.4673   20.7118 C   0  0  0  0  0  0  0  0  0  0  0  0
    7.3773    8.8224   21.4870 C   0  0  0  0  0  0  0  0  0  0  0  0
    8.4391    6.6439   21.0235 C   0  0  0  0  0  0  0  0  0  0  0  0
    9.6494   11.1353   20.4167 C   0  0  0  0  0  0  0  0  0  0  0  0
    8.1431    7.6829   21.9046 C   0  0  0  0  0  0  0  0  0  0  0  0
    7.7796   10.1314   21.5115 N   0  0  0  0  0  0  0  0  0  0  0  0
    9.2768    5.6183   21.4437 C   0  0  0  0  0  0  0  0  0  0  0  0
    8.6315    7.7322   23.1768 C   0  0  0  0  0  0  0  0  0  0  0  0
   13.0537    9.9821   20.5781 C   0  0  0  0  0  0  0  0  0  0  0  0
   10.3850    4.6575   23.2386 O   0  0  0  0  0  0  0  0  0  0  0  0
    4.2069    6.8450   20.7994 C   0  0  0  0  0  0  0  0  0  0  0  0
    3.0726   10.1043   19.8522 O   0  0  0  0  0  0  0  0  0  0  0  0
    5.5057    7.1196   21.1155 C   0  0  0  0  0  0  0  0  0  0  0  0
    7.0367   11.0229   21.9948 O   0  0  0  0  0  0  0  0  0  0  0  0
  1  8  4  0
  1 12  4  0
  2  9  1  0
  2 11  4  0
  2 25  4  0
  3 12  4  0
  3 14  1  0
  3 23  4  0
  4 13  4  0
  4 21  4  0
  4 24  1  0
  5  8  4  0
  5 23  4  0
  6 18  2  0
  7 15  4  0
  7 16  1  0
  7 27  4  0
  8 18  1  0
 10 18  1  0
 10 20  1  0
 11 15  4  0
 11 26  1  0
 13 22  4  0
 16 19  1  0
 16 20  2  0
 17 19  4  0
 17 21  4  0
 19 22  4  0
 20 28  1  0
 25 27  4  0
M  END
$$$$

 Created by Python create_sdf_string function

 28 30  0  0  0  0  0  0  0  0999 V2000
   11.4592   11.2893   18.7941 C   0  0  0  0  0  0  0  0  0  0  0  0
    3.4202    7.9009   20.3866 C   0  0  0  0  0  0  0  0  0  0  0  0
   13.5280   10.3522   19.3586 C   0  0  0  0  0  0  0  0  0  0  0  0
    9.6923    5.6468   22.7891 C   0  0  0  0  0  0  0  0  0  0  0  0
   11.7756   10.2554   20.8841 N   0  0  0  0  0  0  0  0  0  0  0  0
    8.9876   11.9370   19.8757 O   0  0  0  0  0  0  0  0  0  0  0  0
    6.0167    8.4478   21.1089 C   0  0  0  0  0  0  0  0  0  0  0  0
   11.0002   10.8890   20.0262 C   0  0  0  0  0  0  0  0  0  0  0  0
    2.1721    7.7393   20.0315 O   0  0  0  0  0  0  0  0  0  0  0  0
    9.1107   10.3880   21.3769 N   0  0  0  0  0  0  0  0  0  0  0  0
    3.9102    9.2008   20.3124 C   0  0  0  0  0  0  0  0  0  0  0  0
   12.7292   10.9960   18.4597 C   0  0  0  0  0  0  0  0  0  0  0  0
    9.3798    6.6793   23.6625 C   0  0  0  0  0  0  0  0  0  0  0  0
   14.7425   10.0739   19.0802 O   0  0  0  0  0  0  0  0  0  0  0  0
    5.1894    9.4673   20.7118 C   0  0  0  0  0  0  0  0  0  0  0  0
    7.3773    8.8224   21.4870 C   0  0  0  0  0  0  0  0  0  0  0  0
    8.4391    6.6439   21.0235 C   0  0  0  0  0  0  0  0  0  0  0  0
    9.6494   11.1353   20.4167 C   0  0  0  0  0  0  0  0  0  0  0  0
    8.1431    7.6829   21.9046 C   0  0  0  0  0  0  0  0  0  0  0  0
    7.7796   10.1314   21.5115 N   0  0  0  0  0  0  0  0  0  0  0  0
    9.2768    5.6183   21.4437 C   0  0  0  0  0  0  0  0  0  0  0  0
    8.6315    7.7322   23.1768 C   0  0  0  0  0  0  0  0  0  0  0  0
   13.0537    9.9821   20.5781 C   0  0  0  0  0  0  0  0  0  0  0  0
   10.3850    4.6575   23.2386 O   0  0  0  0  0  0  0  0  0  0  0  0
    4.2069    6.8450   20.7994 C   0  0  0  0  0  0  0  0  0  0  0  0
    3.0726   10.1043   19.8522 O   0  0  0  0  0  0  0  0  0  0  0  0
    5.5057    7.1196   21.1155 C   0  0  0  0  0  0  0  0  0  0  0  0
    7.0367   11.0229   21.9948 O   0  0  0  0  0  0  0  0  0  0  0  0
  1  8  4  0
  1 12  4  0
  2  9  1  0
  2 11  4  0
  2 25  4  0
  3 12  4  0
  3 14  1  0
  3 23  4  0
  4 13  4  0
  4 21  4  0
  4 24  1  0
  5  8  4  0
  5 23  4  0
  6 18  2  0
  7 15  4  0
  7 16  1  0
  7 27  4  0
  8 18  1  0
 10 18  1  0
 10 20  1  0
 11 15  4  0
 11 26  1  0
 13 22  4  0
 16 19  1  0
 16 20  2  0
 17 19  4  0
 17 21  4  0
 19 22  4  0
 20 28  1  0
 25 27  4  0
M  END
$$$$

 Created by Python create_sdf_string function

 28 30  0  0  0  0  0  0  0  0999 V2000
   11.4592   11.2893   18.7941 C   0  0  0  0  0  0  0  0  0  0  0  0
    3.4202    7.9009   20.3866 C   0  0  0  0  0  0  0  0  0  0  0  0
   13.5280   10.3522   19.3586 C   0  0  0  0  0  0  0  0  0  0  0  0
    9.6923    5.6468   22.7891 C   0  0  0  0  0  0  0  0  0  0  0  0
   11.7756   10.2554   20.8841 N   0  0  0  0  0  0  0  0  0  0  0  0
    8.9876   11.9370   19.8757 O   0  0  0  0  0  0  0  0  0  0  0  0
    6.0167    8.4478   21.1089 C   0  0  0  0  0  0  0  0  0  0  0  0
   11.0002   10.8890   20.0262 C   0  0  0  0  0  0  0  0  0  0  0  0
    2.1721    7.7393   20.0315 O   0  0  0  0  0  0  0  0  0  0  0  0
    9.1107   10.3880   21.3769 N   0  0  0  0  0  0  0  0  0  0  0  0
    3.9102    9.2008   20.3124 C   0  0  0  0  0  0  0  0  0  0  0  0
   12.7292   10.9960   18.4597 C   0  0  0  0  0  0  0  0  0  0  0  0
    9.3798    6.6793   23.6625 C   0  0  0  0  0  0  0  0  0  0  0  0
   14.7425   10.0739   19.0802 O   0  0  0  0  0  0  0  0  0  0  0  0
    5.1894    9.4673   20.7118 C   0  0  0  0  0  0  0  0  0  0  0  0
    7.3773    8.8224   21.4870 C   0  0  0  0  0  0  0  0  0  0  0  0
    8.4391    6.6439   21.0235 C   0  0  0  0  0  0  0  0  0  0  0  0
    9.6494   11.1353   20.4167 C   0  0  0  0  0  0  0  0  0  0  0  0
    8.1431    7.6829   21.9046 C   0  0  0  0  0  0  0  0  0  0  0  0
    7.7796   10.1314   21.5115 N   0  0  0  0  0  0  0  0  0  0  0  0
    9.2768    5.6183   21.4437 C   0  0  0  0  0  0  0  0  0  0  0  0
    8.6315    7.7322   23.1768 C   0  0  0  0  0  0  0  0  0  0  0  0
   13.0537    9.9821   20.5781 C   0  0  0  0  0  0  0  0  0  0  0  0
   10.3850    4.6575   23.2386 O   0  0  0  0  0  0  0  0  0  0  0  0
    4.2069    6.8450   20.7994 C   0  0  0  0  0  0  0  0  0  0  0  0
    3.0726   10.1043   19.8522 O   0  0  0  0  0  0  0  0  0  0  0  0
    5.5057    7.1196   21.1155 C   0  0  0  0  0  0  0  0  0  0  0  0
    7.0367   11.0229   21.9948 O   0  0  0  0  0  0  0  0  0  0  0  0
  1  8  4  0
  1 12  4  0
  2  9  1  0
  2 11  4  0
  2 25  4  0
  3 12  4  0
  3 14  1  0
  3 23  4  0
  4 13  4  0
  4 21  4  0
  4 24  1  0
  5  8  4  0
  5 23  4  0
  6 18  2  0
  7 15  4  0
  7 16  1  0
  7 27  4  0
  8 18  1  0
 10 18  1  0
 10 20  1  0
 11 15  4  0
 11 26  1  0
 13 22  4  0
 16 19  1  0
 16 20  2  0
 17 19  4  0
 17 21  4  0
 19 22  4  0
 20 28  1  0
 25 27  4  0
M  END
$$$$

 Created by Python create_sdf_string function

 28 30  0  0  0  0  0  0  0  0999 V2000
   11.4592   11.2893   18.7941 C   0  0  0  0  0  0  0  0  0  0  0  0
    3.4202    7.9009   20.3866 C   0  0  0  0  0  0  0  0  0  0  0  0
   13.5280   10.3522   19.3586 C   0  0  0  0  0  0  0  0  0  0  0  0
    9.6923    5.6468   22.7891 C   0  0  0  0  0  0  0  0  0  0  0  0
   11.7756   10.2554   20.8841 N   0  0  0  0  0  0  0  0  0  0  0  0
    8.9876   11.9370   19.8757 O   0  0  0  0  0  0  0  0  0  0  0  0
    6.0167    8.4478   21.1089 C   0  0  0  0  0  0  0  0  0  0  0  0
   11.0002   10.8890   20.0262 C   0  0  0  0  0  0  0  0  0  0  0  0
    2.1721    7.7393   20.0315 O   0  0  0  0  0  0  0  0  0  0  0  0
    9.1107   10.3880   21.3769 N   0  0  0  0  0  0  0  0  0  0  0  0
    3.9102    9.2008   20.3124 C   0  0  0  0  0  0  0  0  0  0  0  0
   12.7292   10.9960   18.4597 C   0  0  0  0  0  0  0  0  0  0  0  0
    9.3798    6.6793   23.6625 C   0  0  0  0  0  0  0  0  0  0  0  0
   14.7425   10.0739   19.0802 O   0  0  0  0  0  0  0  0  0  0  0  0
    5.1894    9.4673   20.7118 C   0  0  0  0  0  0  0  0  0  0  0  0
    7.3773    8.8224   21.4870 C   0  0  0  0  0  0  0  0  0  0  0  0
    8.4391    6.6439   21.0235 C   0  0  0  0  0  0  0  0  0  0  0  0
    9.6494   11.1353   20.4167 C   0  0  0  0  0  0  0  0  0  0  0  0
    8.1431    7.6829   21.9046 C   0  0  0  0  0  0  0  0  0  0  0  0
    7.7796   10.1314   21.5115 N   0  0  0  0  0  0  0  0  0  0  0  0
    9.2768    5.6183   21.4437 C   0  0  0  0  0  0  0  0  0  0  0  0
    8.6315    7.7322   23.1768 C   0  0  0  0  0  0  0  0  0  0  0  0
   13.0537    9.9821   20.5781 C   0  0  0  0  0  0  0  0  0  0  0  0
   10.3850    4.6575   23.2386 O   0  0  0  0  0  0  0  0  0  0  0  0
    4.2069    6.8450   20.7994 C   0  0  0  0  0  0  0  0  0  0  0  0
    3.0726   10.1043   19.8522 O   0  0  0  0  0  0  0  0  0  0  0  0
    5.5057    7.1196   21.1155 C   0  0  0  0  0  0  0  0  0  0  0  0
    7.0367   11.0229   21.9948 O   0  0  0  0  0  0  0  0  0  0  0  0
  1  8  4  0
  1 12  4  0
  2  9  1  0
  2 11  4  0
  2 25  4  0
  3 12  4  0
  3 14  1  0
  3 23  4  0
  4 13  4  0
  4 21  4  0
  4 24  1  0
  5  8  4  0
  5 23  4  0
  6 18  2  0
  7 15  4  0
  7 16  1  0
  7 27  4  0
  8 18  1  0
 10 18  1  0
 10 20  1  0
 11 15  4  0
 11 26  1  0
 13 22  4  0
 16 19  1  0
 16 20  2  0
 17 19  4  0
 17 21  4  0
 19 22  4  0
 20 28  1  0
 25 27  4  0
M  END
$$$$

 Created by Python create_sdf_string function

 28 30  0  0  0  0  0  0  0  0999 V2000
   11.4592   11.2893   18.7941 C   0  0  0  0  0  0  0  0  0  0  0  0
    3.4202    7.9009   20.3866 C   0  0  0  0  0  0  0  0  0  0  0  0
   13.5280   10.3522   19.3586 C   0  0  0  0  0  0  0  0  0  0  0  0
    9.6923    5.6468   22.7891 C   0  0  0  0  0  0  0  0  0  0  0  0
   11.7756   10.2554   20.8841 N   0  0  0  0  0  0  0  0  0  0  0  0
    8.9876   11.9370   19.8757 O   0  0  0  0  0  0  0  0  0  0  0  0
    6.0167    8.4478   21.1089 C   0  0  0  0  0  0  0  0  0  0  0  0
   11.0002   10.8890   20.0262 C   0  0  0  0  0  0  0  0  0  0  0  0
    2.1721    7.7393   20.0315 O   0  0  0  0  0  0  0  0  0  0  0  0
    9.1107   10.3880   21.3769 N   0  0  0  0  0  0  0  0  0  0  0  0
    3.9102    9.2008   20.3124 C   0  0  0  0  0  0  0  0  0  0  0  0
   12.7292   10.9960   18.4597 C   0  0  0  0  0  0  0  0  0  0  0  0
    9.3798    6.6793   23.6625 C   0  0  0  0  0  0  0  0  0  0  0  0
   14.7425   10.0739   19.0802 O   0  0  0  0  0  0  0  0  0  0  0  0
    5.1894    9.4673   20.7118 C   0  0  0  0  0  0  0  0  0  0  0  0
    7.3773    8.8224   21.4870 C   0  0  0  0  0  0  0  0  0  0  0  0
    8.4391    6.6439   21.0235 C   0  0  0  0  0  0  0  0  0  0  0  0
    9.6494   11.1353   20.4167 C   0  0  0  0  0  0  0  0  0  0  0  0
    8.1431    7.6829   21.9046 C   0  0  0  0  0  0  0  0  0  0  0  0
    7.7796   10.1314   21.5115 N   0  0  0  0  0  0  0  0  0  0  0  0
    9.2768    5.6183   21.4437 C   0  0  0  0  0  0  0  0  0  0  0  0
    8.6315    7.7322   23.1768 C   0  0  0  0  0  0  0  0  0  0  0  0
   13.0537    9.9821   20.5781 C   0  0  0  0  0  0  0  0  0  0  0  0
   10.3850    4.6575   23.2386 O   0  0  0  0  0  0  0  0  0  0  0  0
    4.2069    6.8450   20.7994 C   0  0  0  0  0  0  0  0  0  0  0  0
    3.0726   10.1043   19.8522 O   0  0  0  0  0  0  0  0  0  0  0  0
    5.5057    7.1196   21.1155 C   0  0  0  0  0  0  0  0  0  0  0  0
    7.0367   11.0229   21.9948 O   0  0  0  0  0  0  0  0  0  0  0  0
  1  8  4  0
  1 12  4  0
  2  9  1  0
  2 11  4  0
  2 25  4  0
  3 12  4  0
  3 14  1  0
  3 23  4  0
  4 13  4  0
  4 21  4  0
  4 24  1  0
  5  8  4  0
  5 23  4  0
  6 18  2  0
  7 15  4  0
  7 16  1  0
  7 27  4  0
  8 18  1  0
 10 18  1  0
 10 20  1  0
 11 15  4  0
 11 26  1  0
 13 22  4  0
 16 19  1  0
 16 20  2  0
 17 19  4  0
 17 21  4  0
 19 22  4  0
 20 28  1  0
 25 27  4  0
M  END
$$$$

 Created by Python create_sdf_string function

 28 30  0  0  0  0  0  0  0  0999 V2000
   11.4592   11.2893   18.7941 C   0  0  0  0  0  0  0  0  0  0  0  0
    3.4202    7.9009   20.3866 C   0  0  0  0  0  0  0  0  0  0  0  0
   13.5280   10.3522   19.3586 C   0  0  0  0  0  0  0  0  0  0  0  0
    9.6923    5.6468   22.7891 C   0  0  0  0  0  0  0  0  0  0  0  0
   11.7756   10.2554   20.8841 N   0  0  0  0  0  0  0  0  0  0  0  0
    8.9876   11.9370   19.8757 O   0  0  0  0  0  0  0  0  0  0  0  0
    6.0167    8.4478   21.1089 C   0  0  0  0  0  0  0  0  0  0  0  0
   11.0002   10.8890   20.0262 C   0  0  0  0  0  0  0  0  0  0  0  0
    2.1721    7.7393   20.0315 O   0  0  0  0  0  0  0  0  0  0  0  0
    9.1107   10.3880   21.3769 N   0  0  0  0  0  0  0  0  0  0  0  0
    3.9102    9.2008   20.3124 C   0  0  0  0  0  0  0  0  0  0  0  0
   12.7292   10.9960   18.4597 C   0  0  0  0  0  0  0  0  0  0  0  0
    9.3798    6.6793   23.6625 C   0  0  0  0  0  0  0  0  0  0  0  0
   14.7425   10.0739   19.0802 O   0  0  0  0  0  0  0  0  0  0  0  0
    5.1894    9.4673   20.7118 C   0  0  0  0  0  0  0  0  0  0  0  0
    7.3773    8.8224   21.4870 C   0  0  0  0  0  0  0  0  0  0  0  0
    8.4391    6.6439   21.0235 C   0  0  0  0  0  0  0  0  0  0  0  0
    9.6494   11.1353   20.4167 C   0  0  0  0  0  0  0  0  0  0  0  0
    8.1431    7.6829   21.9046 C   0  0  0  0  0  0  0  0  0  0  0  0
    7.7796   10.1314   21.5115 N   0  0  0  0  0  0  0  0  0  0  0  0
    9.2768    5.6183   21.4437 C   0  0  0  0  0  0  0  0  0  0  0  0
    8.6315    7.7322   23.1768 C   0  0  0  0  0  0  0  0  0  0  0  0
   13.0537    9.9821   20.5781 C   0  0  0  0  0  0  0  0  0  0  0  0
   10.3850    4.6575   23.2386 O   0  0  0  0  0  0  0  0  0  0  0  0
    4.2069    6.8450   20.7994 C   0  0  0  0  0  0  0  0  0  0  0  0
    3.0726   10.1043   19.8522 O   0  0  0  0  0  0  0  0  0  0  0  0
    5.5057    7.1196   21.1155 C   0  0  0  0  0  0  0  0  0  0  0  0
    7.0367   11.0229   21.9948 O   0  0  0  0  0  0  0  0  0  0  0  0
  1  8  4  0
  1 12  4  0
  2  9  1  0
  2 11  4  0
  2 25  4  0
  3 12  4  0
  3 14  1  0
  3 23  4  0
  4 13  4  0
  4 21  4  0
  4 24  1  0
  5  8  4  0
  5 23  4  0
  6 18  2  0
  7 15  4  0
  7 16  1  0
  7 27  4  0
  8 18  1  0
 10 18  1  0
 10 20  1  0
 11 15  4  0
 11 26  1  0
 13 22  4  0
 16 19  1  0
 16 20  2  0
 17 19  4  0
 17 21  4  0
 19 22  4  0
 20 28  1  0
 25 27  4  0
M  END
$$$$

 Created by Python create_sdf_string function

 28 30  0  0  0  0  0  0  0  0999 V2000
   11.4592   11.2893   18.7941 C   0  0  0  0  0  0  0  0  0  0  0  0
    3.4202    7.9009   20.3866 C   0  0  0  0  0  0  0  0  0  0  0  0
   13.5280   10.3522   19.3586 C   0  0  0  0  0  0  0  0  0  0  0  0
    9.6923    5.6468   22.7891 C   0  0  0  0  0  0  0  0  0  0  0  0
   11.7756   10.2554   20.8841 N   0  0  0  0  0  0  0  0  0  0  0  0
    8.9876   11.9370   19.8757 O   0  0  0  0  0  0  0  0  0  0  0  0
    6.0167    8.4478   21.1089 C   0  0  0  0  0  0  0  0  0  0  0  0
   11.0002   10.8890   20.0262 C   0  0  0  0  0  0  0  0  0  0  0  0
    2.1721    7.7393   20.0315 O   0  0  0  0  0  0  0  0  0  0  0  0
    9.1107   10.3880   21.3769 N   0  0  0  0  0  0  0  0  0  0  0  0
    3.9102    9.2008   20.3124 C   0  0  0  0  0  0  0  0  0  0  0  0
   12.7292   10.9960   18.4597 C   0  0  0  0  0  0  0  0  0  0  0  0
    9.3798    6.6793   23.6625 C   0  0  0  0  0  0  0  0  0  0  0  0
   14.7425   10.0739   19.0802 O   0  0  0  0  0  0  0  0  0  0  0  0
    5.1894    9.4673   20.7118 C   0  0  0  0  0  0  0  0  0  0  0  0
    7.3773    8.8224   21.4870 C   0  0  0  0  0  0  0  0  0  0  0  0
    8.4391    6.6439   21.0235 C   0  0  0  0  0  0  0  0  0  0  0  0
    9.6494   11.1353   20.4167 C   0  0  0  0  0  0  0  0  0  0  0  0
    8.1431    7.6829   21.9046 C   0  0  0  0  0  0  0  0  0  0  0  0
    7.7796   10.1314   21.5115 N   0  0  0  0  0  0  0  0  0  0  0  0
    9.2768    5.6183   21.4437 C   0  0  0  0  0  0  0  0  0  0  0  0
    8.6315    7.7322   23.1768 C   0  0  0  0  0  0  0  0  0  0  0  0
   13.0537    9.9821   20.5781 C   0  0  0  0  0  0  0  0  0  0  0  0
   10.3850    4.6575   23.2386 O   0  0  0  0  0  0  0  0  0  0  0  0
    4.2069    6.8450   20.7994 C   0  0  0  0  0  0  0  0  0  0  0  0
    3.0726   10.1043   19.8522 O   0  0  0  0  0  0  0  0  0  0  0  0
    5.5057    7.1196   21.1155 C   0  0  0  0  0  0  0  0  0  0  0  0
    7.0367   11.0229   21.9948 O   0  0  0  0  0  0  0  0  0  0  0  0
  1  8  4  0
  1 12  4  0
  2  9  1  0
  2 11  4  0
  2 25  4  0
  3 12  4  0
  3 14  1  0
  3 23  4  0
  4 13  4  0
  4 21  4  0
  4 24  1  0
  5  8  4  0
  5 23  4  0
  6 18  2  0
  7 15  4  0
  7 16  1  0
  7 27  4  0
  8 18  1  0
 10 18  1  0
 10 20  1  0
 11 15  4  0
 11 26  1  0
 13 22  4  0
 16 19  1  0
 16 20  2  0
 17 19  4  0
 17 21  4  0
 19 22  4  0
 20 28  1  0
 25 27  4  0
M  END
$$$$

 Created by Python create_sdf_string function

 28 30  0  0  0  0  0  0  0  0999 V2000
   11.4592   11.2893   18.7941 C   0  0  0  0  0  0  0  0  0  0  0  0
    3.4202    7.9009   20.3866 C   0  0  0  0  0  0  0  0  0  0  0  0
   13.5280   10.3522   19.3586 C   0  0  0  0  0  0  0  0  0  0  0  0
    9.6923    5.6468   22.7891 C   0  0  0  0  0  0  0  0  0  0  0  0
   11.7756   10.2554   20.8841 N   0  0  0  0  0  0  0  0  0  0  0  0
    8.9876   11.9370   19.8757 O   0  0  0  0  0  0  0  0  0  0  0  0
    6.0167    8.4478   21.1089 C   0  0  0  0  0  0  0  0  0  0  0  0
   11.0002   10.8890   20.0262 C   0  0  0  0  0  0  0  0  0  0  0  0
    2.1721    7.7393   20.0315 O   0  0  0  0  0  0  0  0  0  0  0  0
    9.1107   10.3880   21.3769 N   0  0  0  0  0  0  0  0  0  0  0  0
    3.9102    9.2008   20.3124 C   0  0  0  0  0  0  0  0  0  0  0  0
   12.7292   10.9960   18.4597 C   0  0  0  0  0  0  0  0  0  0  0  0
    9.3798    6.6793   23.6625 C   0  0  0  0  0  0  0  0  0  0  0  0
   14.7425   10.0739   19.0802 O   0  0  0  0  0  0  0  0  0  0  0  0
    5.1894    9.4673   20.7118 C   0  0  0  0  0  0  0  0  0  0  0  0
    7.3773    8.8224   21.4870 C   0  0  0  0  0  0  0  0  0  0  0  0
    8.4391    6.6439   21.0235 C   0  0  0  0  0  0  0  0  0  0  0  0
    9.6494   11.1353   20.4167 C   0  0  0  0  0  0  0  0  0  0  0  0
    8.1431    7.6829   21.9046 C   0  0  0  0  0  0  0  0  0  0  0  0
    7.7796   10.1314   21.5115 N   0  0  0  0  0  0  0  0  0  0  0  0
    9.2768    5.6183   21.4437 C   0  0  0  0  0  0  0  0  0  0  0  0
    8.6315    7.7322   23.1768 C   0  0  0  0  0  0  0  0  0  0  0  0
   13.0537    9.9821   20.5781 C   0  0  0  0  0  0  0  0  0  0  0  0
   10.3850    4.6575   23.2386 O   0  0  0  0  0  0  0  0  0  0  0  0
    4.2069    6.8450   20.7994 C   0  0  0  0  0  0  0  0  0  0  0  0
    3.0726   10.1043   19.8522 O   0  0  0  0  0  0  0  0  0  0  0  0
    5.5057    7.1196   21.1155 C   0  0  0  0  0  0  0  0  0  0  0  0
    7.0367   11.0229   21.9948 O   0  0  0  0  0  0  0  0  0  0  0  0
  1  8  4  0
  1 12  4  0
  2  9  1  0
  2 11  4  0
  2 25  4  0
  3 12  4  0
  3 14  1  0
  3 23  4  0
  4 13  4  0
  4 21  4  0
  4 24  1  0
  5  8  4  0
  5 23  4  0
  6 18  2  0
  7 15  4  0
  7 16  1  0
  7 27  4  0
  8 18  1  0
 10 18  1  0
 10 20  1  0
 11 15  4  0
 11 26  1  0
 13 22  4  0
 16 19  1  0
 16 20  2  0
 17 19  4  0
 17 21  4  0
 19 22  4  0
 20 28  1  0
 25 27  4  0
M  END
$$$$

 Created by Python create_sdf_string function

 28 30  0  0  0  0  0  0  0  0999 V2000
   11.4592   11.2893   18.7941 C   0  0  0  0  0  0  0  0  0  0  0  0
    3.4202    7.9009   20.3866 C   0  0  0  0  0  0  0  0  0  0  0  0
   13.5280   10.3522   19.3586 C   0  0  0  0  0  0  0  0  0  0  0  0
    9.6923    5.6468   22.7891 C   0  0  0  0  0  0  0  0  0  0  0  0
   11.7756   10.2554   20.8841 N   0  0  0  0  0  0  0  0  0  0  0  0
    8.9876   11.9370   19.8757 O   0  0  0  0  0  0  0  0  0  0  0  0
    6.0167    8.4478   21.1089 C   0  0  0  0  0  0  0  0  0  0  0  0
   11.0002   10.8890   20.0262 C   0  0  0  0  0  0  0  0  0  0  0  0
    2.1721    7.7393   20.0315 O   0  0  0  0  0  0  0  0  0  0  0  0
    9.1107   10.3880   21.3769 N   0  0  0  0  0  0  0  0  0  0  0  0
    3.9102    9.2008   20.3124 C   0  0  0  0  0  0  0  0  0  0  0  0
   12.7292   10.9960   18.4597 C   0  0  0  0  0  0  0  0  0  0  0  0
    9.3798    6.6793   23.6625 C   0  0  0  0  0  0  0  0  0  0  0  0
   14.7425   10.0739   19.0802 O   0  0  0  0  0  0  0  0  0  0  0  0
    5.1894    9.4673   20.7118 C   0  0  0  0  0  0  0  0  0  0  0  0
    7.3773    8.8224   21.4870 C   0  0  0  0  0  0  0  0  0  0  0  0
    8.4391    6.6439   21.0235 C   0  0  0  0  0  0  0  0  0  0  0  0
    9.6494   11.1353   20.4167 C   0  0  0  0  0  0  0  0  0  0  0  0
    8.1431    7.6829   21.9046 C   0  0  0  0  0  0  0  0  0  0  0  0
    7.7796   10.1314   21.5115 N   0  0  0  0  0  0  0  0  0  0  0  0
    9.2768    5.6183   21.4437 C   0  0  0  0  0  0  0  0  0  0  0  0
    8.6315    7.7322   23.1768 C   0  0  0  0  0  0  0  0  0  0  0  0
   13.0537    9.9821   20.5781 C   0  0  0  0  0  0  0  0  0  0  0  0
   10.3850    4.6575   23.2386 O   0  0  0  0  0  0  0  0  0  0  0  0
    4.2069    6.8450   20.7994 C   0  0  0  0  0  0  0  0  0  0  0  0
    3.0726   10.1043   19.8522 O   0  0  0  0  0  0  0  0  0  0  0  0
    5.5057    7.1196   21.1155 C   0  0  0  0  0  0  0  0  0  0  0  0
    7.0367   11.0229   21.9948 O   0  0  0  0  0  0  0  0  0  0  0  0
  1  8  4  0
  1 12  4  0
  2  9  1  0
  2 11  4  0
  2 25  4  0
  3 12  4  0
  3 14  1  0
  3 23  4  0
  4 13  4  0
  4 21  4  0
  4 24  1  0
  5  8  4  0
  5 23  4  0
  6 18  2  0
  7 15  4  0
  7 16  1  0
  7 27  4  0
  8 18  1  0
 10 18  1  0
 10 20  1  0
 11 15  4  0
 11 26  1  0
 13 22  4  0
 16 19  1  0
 16 20  2  0
 17 19  4  0
 17 21  4  0
 19 22  4  0
 20 28  1  0
 25 27  4  0
M  END
$$$$

 Created by Python create_sdf_string function

 28 30  0  0  0  0  0  0  0  0999 V2000
   11.4592   11.2893   18.7941 C   0  0  0  0  0  0  0  0  0  0  0  0
    3.4202    7.9009   20.3866 C   0  0  0  0  0  0  0  0  0  0  0  0
   13.5280   10.3522   19.3586 C   0  0  0  0  0  0  0  0  0  0  0  0
    9.6923    5.6468   22.7891 C   0  0  0  0  0  0  0  0  0  0  0  0
   11.7756   10.2554   20.8841 N   0  0  0  0  0  0  0  0  0  0  0  0
    8.9876   11.9370   19.8757 O   0  0  0  0  0  0  0  0  0  0  0  0
    6.0167    8.4478   21.1089 C   0  0  0  0  0  0  0  0  0  0  0  0
   11.0002   10.8890   20.0262 C   0  0  0  0  0  0  0  0  0  0  0  0
    2.1721    7.7393   20.0315 O   0  0  0  0  0  0  0  0  0  0  0  0
    9.1107   10.3880   21.3769 N   0  0  0  0  0  0  0  0  0  0  0  0
    3.9102    9.2008   20.3124 C   0  0  0  0  0  0  0  0  0  0  0  0
   12.7292   10.9960   18.4597 C   0  0  0  0  0  0  0  0  0  0  0  0
    9.3798    6.6793   23.6625 C   0  0  0  0  0  0  0  0  0  0  0  0
   14.7425   10.0739   19.0802 O   0  0  0  0  0  0  0  0  0  0  0  0
    5.1894    9.4673   20.7118 C   0  0  0  0  0  0  0  0  0  0  0  0
    7.3773    8.8224   21.4870 C   0  0  0  0  0  0  0  0  0  0  0  0
    8.4391    6.6439   21.0235 C   0  0  0  0  0  0  0  0  0  0  0  0
    9.6494   11.1353   20.4167 C   0  0  0  0  0  0  0  0  0  0  0  0
    8.1431    7.6829   21.9046 C   0  0  0  0  0  0  0  0  0  0  0  0
    7.7796   10.1314   21.5115 N   0  0  0  0  0  0  0  0  0  0  0  0
    9.2768    5.6183   21.4437 C   0  0  0  0  0  0  0  0  0  0  0  0
    8.6315    7.7322   23.1768 C   0  0  0  0  0  0  0  0  0  0  0  0
   13.0537    9.9821   20.5781 C   0  0  0  0  0  0  0  0  0  0  0  0
   10.3850    4.6575   23.2386 O   0  0  0  0  0  0  0  0  0  0  0  0
    4.2069    6.8450   20.7994 C   0  0  0  0  0  0  0  0  0  0  0  0
    3.0726   10.1043   19.8522 O   0  0  0  0  0  0  0  0  0  0  0  0
    5.5057    7.1196   21.1155 C   0  0  0  0  0  0  0  0  0  0  0  0
    7.0367   11.0229   21.9948 O   0  0  0  0  0  0  0  0  0  0  0  0
  1  8  4  0
  1 12  4  0
  2  9  1  0
  2 11  4  0
  2 25  4  0
  3 12  4  0
  3 14  1  0
  3 23  4  0
  4 13  4  0
  4 21  4  0
  4 24  1  0
  5  8  4  0
  5 23  4  0
  6 18  2  0
  7 15  4  0
  7 16  1  0
  7 27  4  0
  8 18  1  0
 10 18  1  0
 10 20  1  0
 11 15  4  0
 11 26  1  0
 13 22  4  0
 16 19  1  0
 16 20  2  0
 17 19  4  0
 17 21  4  0
 19 22  4  0
 20 28  1  0
 25 27  4  0
M  END
$$$$

 Created by Python create_sdf_string function

 28 30  0  0  0  0  0  0  0  0999 V2000
   11.4592   11.2893   18.7941 C   0  0  0  0  0  0  0  0  0  0  0  0
    3.4202    7.9009   20.3866 C   0  0  0  0  0  0  0  0  0  0  0  0
   13.5280   10.3522   19.3586 C   0  0  0  0  0  0  0  0  0  0  0  0
    9.6923    5.6468   22.7891 C   0  0  0  0  0  0  0  0  0  0  0  0
   11.7756   10.2554   20.8841 N   0  0  0  0  0  0  0  0  0  0  0  0
    8.9876   11.9370   19.8757 O   0  0  0  0  0  0  0  0  0  0  0  0
    6.0167    8.4478   21.1089 C   0  0  0  0  0  0  0  0  0  0  0  0
   11.0002   10.8890   20.0262 C   0  0  0  0  0  0  0  0  0  0  0  0
    2.1721    7.7393   20.0315 O   0  0  0  0  0  0  0  0  0  0  0  0
    9.1107   10.3880   21.3769 N   0  0  0  0  0  0  0  0  0  0  0  0
    3.9102    9.2008   20.3124 C   0  0  0  0  0  0  0  0  0  0  0  0
   12.7292   10.9960   18.4597 C   0  0  0  0  0  0  0  0  0  0  0  0
    9.3798    6.6793   23.6625 C   0  0  0  0  0  0  0  0  0  0  0  0
   14.7425   10.0739   19.0802 O   0  0  0  0  0  0  0  0  0  0  0  0
    5.1894    9.4673   20.7118 C   0  0  0  0  0  0  0  0  0  0  0  0
    7.3773    8.8224   21.4870 C   0  0  0  0  0  0  0  0  0  0  0  0
    8.4391    6.6439   21.0235 C   0  0  0  0  0  0  0  0  0  0  0  0
    9.6494   11.1353   20.4167 C   0  0  0  0  0  0  0  0  0  0  0  0
    8.1431    7.6829   21.9046 C   0  0  0  0  0  0  0  0  0  0  0  0
    7.7796   10.1314   21.5115 N   0  0  0  0  0  0  0  0  0  0  0  0
    9.2768    5.6183   21.4437 C   0  0  0  0  0  0  0  0  0  0  0  0
    8.6315    7.7322   23.1768 C   0  0  0  0  0  0  0  0  0  0  0  0
   13.0537    9.9821   20.5781 C   0  0  0  0  0  0  0  0  0  0  0  0
   10.3850    4.6575   23.2386 O   0  0  0  0  0  0  0  0  0  0  0  0
    4.2069    6.8450   20.7994 C   0  0  0  0  0  0  0  0  0  0  0  0
    3.0726   10.1043   19.8522 O   0  0  0  0  0  0  0  0  0  0  0  0
    5.5057    7.1196   21.1155 C   0  0  0  0  0  0  0  0  0  0  0  0
    7.0367   11.0229   21.9948 O   0  0  0  0  0  0  0  0  0  0  0  0
  1  8  4  0
  1 12  4  0
  2  9  1  0
  2 11  4  0
  2 25  4  0
  3 12  4  0
  3 14  1  0
  3 23  4  0
  4 13  4  0
  4 21  4  0
  4 24  1  0
  5  8  4  0
  5 23  4  0
  6 18  2  0
  7 15  4  0
  7 16  1  0
  7 27  4  0
  8 18  1  0
 10 18  1  0
 10 20  1  0
 11 15  4  0
 11 26  1  0
 13 22  4  0
 16 19  1  0
 16 20  2  0
 17 19  4  0
 17 21  4  0
 19 22  4  0
 20 28  1  0
 25 27  4  0
M  END
$$$$

 Created by Python create_sdf_string function

 28 30  0  0  0  0  0  0  0  0999 V2000
   11.4592   11.2893   18.7941 C   0  0  0  0  0  0  0  0  0  0  0  0
    3.4202    7.9009   20.3866 C   0  0  0  0  0  0  0  0  0  0  0  0
   13.5280   10.3522   19.3586 C   0  0  0  0  0  0  0  0  0  0  0  0
    9.6923    5.6468   22.7891 C   0  0  0  0  0  0  0  0  0  0  0  0
   11.7756   10.2554   20.8841 N   0  0  0  0  0  0  0  0  0  0  0  0
    8.9876   11.9370   19.8757 O   0  0  0  0  0  0  0  0  0  0  0  0
    6.0167    8.4478   21.1089 C   0  0  0  0  0  0  0  0  0  0  0  0
   11.0002   10.8890   20.0262 C   0  0  0  0  0  0  0  0  0  0  0  0
    2.1721    7.7393   20.0315 O   0  0  0  0  0  0  0  0  0  0  0  0
    9.1107   10.3880   21.3769 N   0  0  0  0  0  0  0  0  0  0  0  0
    3.9102    9.2008   20.3124 C   0  0  0  0  0  0  0  0  0  0  0  0
   12.7292   10.9960   18.4597 C   0  0  0  0  0  0  0  0  0  0  0  0
    9.3798    6.6793   23.6625 C   0  0  0  0  0  0  0  0  0  0  0  0
   14.7425   10.0739   19.0802 O   0  0  0  0  0  0  0  0  0  0  0  0
    5.1894    9.4673   20.7118 C   0  0  0  0  0  0  0  0  0  0  0  0
    7.3773    8.8224   21.4870 C   0  0  0  0  0  0  0  0  0  0  0  0
    8.4391    6.6439   21.0235 C   0  0  0  0  0  0  0  0  0  0  0  0
    9.6494   11.1353   20.4167 C   0  0  0  0  0  0  0  0  0  0  0  0
    8.1431    7.6829   21.9046 C   0  0  0  0  0  0  0  0  0  0  0  0
    7.7796   10.1314   21.5115 N   0  0  0  0  0  0  0  0  0  0  0  0
    9.2768    5.6183   21.4437 C   0  0  0  0  0  0  0  0  0  0  0  0
    8.6315    7.7322   23.1768 C   0  0  0  0  0  0  0  0  0  0  0  0
   13.0537    9.9821   20.5781 C   0  0  0  0  0  0  0  0  0  0  0  0
   10.3850    4.6575   23.2386 O   0  0  0  0  0  0  0  0  0  0  0  0
    4.2069    6.8450   20.7994 C   0  0  0  0  0  0  0  0  0  0  0  0
    3.0726   10.1043   19.8522 O   0  0  0  0  0  0  0  0  0  0  0  0
    5.5057    7.1196   21.1155 C   0  0  0  0  0  0  0  0  0  0  0  0
    7.0367   11.0229   21.9948 O   0  0  0  0  0  0  0  0  0  0  0  0
  1  8  4  0
  1 12  4  0
  2  9  1  0
  2 11  4  0
  2 25  4  0
  3 12  4  0
  3 14  1  0
  3 23  4  0
  4 13  4  0
  4 21  4  0
  4 24  1  0
  5  8  4  0
  5 23  4  0
  6 18  2  0
  7 15  4  0
  7 16  1  0
  7 27  4  0
  8 18  1  0
 10 18  1  0
 10 20  1  0
 11 15  4  0
 11 26  1  0
 13 22  4  0
 16 19  1  0
 16 20  2  0
 17 19  4  0
 17 21  4  0
 19 22  4  0
 20 28  1  0
 25 27  4  0
M  END
$$$$

 Created by Python create_sdf_string function

 28 30  0  0  0  0  0  0  0  0999 V2000
   11.4592   11.2893   18.7941 C   0  0  0  0  0  0  0  0  0  0  0  0
    3.4202    7.9009   20.3866 C   0  0  0  0  0  0  0  0  0  0  0  0
   13.5280   10.3522   19.3586 C   0  0  0  0  0  0  0  0  0  0  0  0
    9.6923    5.6468   22.7891 C   0  0  0  0  0  0  0  0  0  0  0  0
   11.7756   10.2554   20.8841 N   0  0  0  0  0  0  0  0  0  0  0  0
    8.9876   11.9370   19.8757 O   0  0  0  0  0  0  0  0  0  0  0  0
    6.0167    8.4478   21.1089 C   0  0  0  0  0  0  0  0  0  0  0  0
   11.0002   10.8890   20.0262 C   0  0  0  0  0  0  0  0  0  0  0  0
    2.1721    7.7393   20.0315 O   0  0  0  0  0  0  0  0  0  0  0  0
    9.1107   10.3880   21.3769 N   0  0  0  0  0  0  0  0  0  0  0  0
    3.9102    9.2008   20.3124 C   0  0  0  0  0  0  0  0  0  0  0  0
   12.7292   10.9960   18.4597 C   0  0  0  0  0  0  0  0  0  0  0  0
    9.3798    6.6793   23.6625 C   0  0  0  0  0  0  0  0  0  0  0  0
   14.7425   10.0739   19.0802 O   0  0  0  0  0  0  0  0  0  0  0  0
    5.1894    9.4673   20.7118 C   0  0  0  0  0  0  0  0  0  0  0  0
    7.3773    8.8224   21.4870 C   0  0  0  0  0  0  0  0  0  0  0  0
    8.4391    6.6439   21.0235 C   0  0  0  0  0  0  0  0  0  0  0  0
    9.6494   11.1353   20.4167 C   0  0  0  0  0  0  0  0  0  0  0  0
    8.1431    7.6829   21.9046 C   0  0  0  0  0  0  0  0  0  0  0  0
    7.7796   10.1314   21.5115 N   0  0  0  0  0  0  0  0  0  0  0  0
    9.2768    5.6183   21.4437 C   0  0  0  0  0  0  0  0  0  0  0  0
    8.6315    7.7322   23.1768 C   0  0  0  0  0  0  0  0  0  0  0  0
   13.0537    9.9821   20.5781 C   0  0  0  0  0  0  0  0  0  0  0  0
   10.3850    4.6575   23.2386 O   0  0  0  0  0  0  0  0  0  0  0  0
    4.2069    6.8450   20.7994 C   0  0  0  0  0  0  0  0  0  0  0  0
    3.0726   10.1043   19.8522 O   0  0  0  0  0  0  0  0  0  0  0  0
    5.5057    7.1196   21.1155 C   0  0  0  0  0  0  0  0  0  0  0  0
    7.0367   11.0229   21.9948 O   0  0  0  0  0  0  0  0  0  0  0  0
  1  8  4  0
  1 12  4  0
  2  9  1  0
  2 11  4  0
  2 25  4  0
  3 12  4  0
  3 14  1  0
  3 23  4  0
  4 13  4  0
  4 21  4  0
  4 24  1  0
  5  8  4  0
  5 23  4  0
  6 18  2  0
  7 15  4  0
  7 16  1  0
  7 27  4  0
  8 18  1  0
 10 18  1  0
 10 20  1  0
 11 15  4  0
 11 26  1  0
 13 22  4  0
 16 19  1  0
 16 20  2  0
 17 19  4  0
 17 21  4  0
 19 22  4  0
 20 28  1  0
 25 27  4  0
M  END
$$$$

 Created by Python create_sdf_string function

 28 30  0  0  0  0  0  0  0  0999 V2000
   11.4592   11.2893   18.7941 C   0  0  0  0  0  0  0  0  0  0  0  0
    3.4202    7.9009   20.3866 C   0  0  0  0  0  0  0  0  0  0  0  0
   13.5280   10.3522   19.3586 C   0  0  0  0  0  0  0  0  0  0  0  0
    9.6923    5.6468   22.7891 C   0  0  0  0  0  0  0  0  0  0  0  0
   11.7756   10.2554   20.8841 N   0  0  0  0  0  0  0  0  0  0  0  0
    8.9876   11.9370   19.8757 O   0  0  0  0  0  0  0  0  0  0  0  0
    6.0167    8.4478   21.1089 C   0  0  0  0  0  0  0  0  0  0  0  0
   11.0002   10.8890   20.0262 C   0  0  0  0  0  0  0  0  0  0  0  0
    2.1721    7.7393   20.0315 O   0  0  0  0  0  0  0  0  0  0  0  0
    9.1107   10.3880   21.3769 N   0  0  0  0  0  0  0  0  0  0  0  0
    3.9102    9.2008   20.3124 C   0  0  0  0  0  0  0  0  0  0  0  0
   12.7292   10.9960   18.4597 C   0  0  0  0  0  0  0  0  0  0  0  0
    9.3798    6.6793   23.6625 C   0  0  0  0  0  0  0  0  0  0  0  0
   14.7425   10.0739   19.0802 O   0  0  0  0  0  0  0  0  0  0  0  0
    5.1894    9.4673   20.7118 C   0  0  0  0  0  0  0  0  0  0  0  0
    7.3773    8.8224   21.4870 C   0  0  0  0  0  0  0  0  0  0  0  0
    8.4391    6.6439   21.0235 C   0  0  0  0  0  0  0  0  0  0  0  0
    9.6494   11.1353   20.4167 C   0  0  0  0  0  0  0  0  0  0  0  0
    8.1431    7.6829   21.9046 C   0  0  0  0  0  0  0  0  0  0  0  0
    7.7796   10.1314   21.5115 N   0  0  0  0  0  0  0  0  0  0  0  0
    9.2768    5.6183   21.4437 C   0  0  0  0  0  0  0  0  0  0  0  0
    8.6315    7.7322   23.1768 C   0  0  0  0  0  0  0  0  0  0  0  0
   13.0537    9.9821   20.5781 C   0  0  0  0  0  0  0  0  0  0  0  0
   10.3850    4.6575   23.2386 O   0  0  0  0  0  0  0  0  0  0  0  0
    4.2069    6.8450   20.7994 C   0  0  0  0  0  0  0  0  0  0  0  0
    3.0726   10.1043   19.8522 O   0  0  0  0  0  0  0  0  0  0  0  0
    5.5057    7.1196   21.1155 C   0  0  0  0  0  0  0  0  0  0  0  0
    7.0367   11.0229   21.9948 O   0  0  0  0  0  0  0  0  0  0  0  0
  1  8  4  0
  1 12  4  0
  2  9  1  0
  2 11  4  0
  2 25  4  0
  3 12  4  0
  3 14  1  0
  3 23  4  0
  4 13  4  0
  4 21  4  0
  4 24  1  0
  5  8  4  0
  5 23  4  0
  6 18  2  0
  7 15  4  0
  7 16  1  0
  7 27  4  0
  8 18  1  0
 10 18  1  0
 10 20  1  0
 11 15  4  0
 11 26  1  0
 13 22  4  0
 16 19  1  0
 16 20  2  0
 17 19  4  0
 17 21  4  0
 19 22  4  0
 20 28  1  0
 25 27  4  0
M  END
$$$$

 Created by Python create_sdf_string function

 28 30  0  0  0  0  0  0  0  0999 V2000
   11.4592   11.2893   18.7941 C   0  0  0  0  0  0  0  0  0  0  0  0
    3.4202    7.9009   20.3866 C   0  0  0  0  0  0  0  0  0  0  0  0
   13.5280   10.3522   19.3586 C   0  0  0  0  0  0  0  0  0  0  0  0
    9.6923    5.6468   22.7891 C   0  0  0  0  0  0  0  0  0  0  0  0
   11.7756   10.2554   20.8841 N   0  0  0  0  0  0  0  0  0  0  0  0
    8.9876   11.9370   19.8757 O   0  0  0  0  0  0  0  0  0  0  0  0
    6.0167    8.4478   21.1089 C   0  0  0  0  0  0  0  0  0  0  0  0
   11.0002   10.8890   20.0262 C   0  0  0  0  0  0  0  0  0  0  0  0
    2.1721    7.7393   20.0315 O   0  0  0  0  0  0  0  0  0  0  0  0
    9.1107   10.3880   21.3769 N   0  0  0  0  0  0  0  0  0  0  0  0
    3.9102    9.2008   20.3124 C   0  0  0  0  0  0  0  0  0  0  0  0
   12.7292   10.9960   18.4597 C   0  0  0  0  0  0  0  0  0  0  0  0
    9.3798    6.6793   23.6625 C   0  0  0  0  0  0  0  0  0  0  0  0
   14.7425   10.0739   19.0802 O   0  0  0  0  0  0  0  0  0  0  0  0
    5.1894    9.4673   20.7118 C   0  0  0  0  0  0  0  0  0  0  0  0
    7.3773    8.8224   21.4870 C   0  0  0  0  0  0  0  0  0  0  0  0
    8.4391    6.6439   21.0235 C   0  0  0  0  0  0  0  0  0  0  0  0
    9.6494   11.1353   20.4167 C   0  0  0  0  0  0  0  0  0  0  0  0
    8.1431    7.6829   21.9046 C   0  0  0  0  0  0  0  0  0  0  0  0
    7.7796   10.1314   21.5115 N   0  0  0  0  0  0  0  0  0  0  0  0
    9.2768    5.6183   21.4437 C   0  0  0  0  0  0  0  0  0  0  0  0
    8.6315    7.7322   23.1768 C   0  0  0  0  0  0  0  0  0  0  0  0
   13.0537    9.9821   20.5781 C   0  0  0  0  0  0  0  0  0  0  0  0
   10.3850    4.6575   23.2386 O   0  0  0  0  0  0  0  0  0  0  0  0
    4.2069    6.8450   20.7994 C   0  0  0  0  0  0  0  0  0  0  0  0
    3.0726   10.1043   19.8522 O   0  0  0  0  0  0  0  0  0  0  0  0
    5.5057    7.1196   21.1155 C   0  0  0  0  0  0  0  0  0  0  0  0
    7.0367   11.0229   21.9948 O   0  0  0  0  0  0  0  0  0  0  0  0
  1  8  4  0
  1 12  4  0
  2  9  1  0
  2 11  4  0
  2 25  4  0
  3 12  4  0
  3 14  1  0
  3 23  4  0
  4 13  4  0
  4 21  4  0
  4 24  1  0
  5  8  4  0
  5 23  4  0
  6 18  2  0
  7 15  4  0
  7 16  1  0
  7 27  4  0
  8 18  1  0
 10 18  1  0
 10 20  1  0
 11 15  4  0
 11 26  1  0
 13 22  4  0
 16 19  1  0
 16 20  2  0
 17 19  4  0
 17 21  4  0
 19 22  4  0
 20 28  1  0
 25 27  4  0
M  END
$$$$

 Created by Python create_sdf_string function

 28 30  0  0  0  0  0  0  0  0999 V2000
   11.4592   11.2893   18.7941 C   0  0  0  0  0  0  0  0  0  0  0  0
    3.4202    7.9009   20.3866 C   0  0  0  0  0  0  0  0  0  0  0  0
   13.5280   10.3522   19.3586 C   0  0  0  0  0  0  0  0  0  0  0  0
    9.6923    5.6468   22.7891 C   0  0  0  0  0  0  0  0  0  0  0  0
   11.7756   10.2554   20.8841 N   0  0  0  0  0  0  0  0  0  0  0  0
    8.9876   11.9370   19.8757 O   0  0  0  0  0  0  0  0  0  0  0  0
    6.0167    8.4478   21.1089 C   0  0  0  0  0  0  0  0  0  0  0  0
   11.0002   10.8890   20.0262 C   0  0  0  0  0  0  0  0  0  0  0  0
    2.1721    7.7393   20.0315 O   0  0  0  0  0  0  0  0  0  0  0  0
    9.1107   10.3880   21.3769 N   0  0  0  0  0  0  0  0  0  0  0  0
    3.9102    9.2008   20.3124 C   0  0  0  0  0  0  0  0  0  0  0  0
   12.7292   10.9960   18.4597 C   0  0  0  0  0  0  0  0  0  0  0  0
    9.3798    6.6793   23.6625 C   0  0  0  0  0  0  0  0  0  0  0  0
   14.7425   10.0739   19.0802 O   0  0  0  0  0  0  0  0  0  0  0  0
    5.1894    9.4673   20.7118 C   0  0  0  0  0  0  0  0  0  0  0  0
    7.3773    8.8224   21.4870 C   0  0  0  0  0  0  0  0  0  0  0  0
    8.4391    6.6439   21.0235 C   0  0  0  0  0  0  0  0  0  0  0  0
    9.6494   11.1353   20.4167 C   0  0  0  0  0  0  0  0  0  0  0  0
    8.1431    7.6829   21.9046 C   0  0  0  0  0  0  0  0  0  0  0  0
    7.7796   10.1314   21.5115 N   0  0  0  0  0  0  0  0  0  0  0  0
    9.2768    5.6183   21.4437 C   0  0  0  0  0  0  0  0  0  0  0  0
    8.6315    7.7322   23.1768 C   0  0  0  0  0  0  0  0  0  0  0  0
   13.0537    9.9821   20.5781 C   0  0  0  0  0  0  0  0  0  0  0  0
   10.3850    4.6575   23.2386 O   0  0  0  0  0  0  0  0  0  0  0  0
    4.2069    6.8450   20.7994 C   0  0  0  0  0  0  0  0  0  0  0  0
    3.0726   10.1043   19.8522 O   0  0  0  0  0  0  0  0  0  0  0  0
    5.5057    7.1196   21.1155 C   0  0  0  0  0  0  0  0  0  0  0  0
    7.0367   11.0229   21.9948 O   0  0  0  0  0  0  0  0  0  0  0  0
  1  8  4  0
  1 12  4  0
  2  9  1  0
  2 11  4  0
  2 25  4  0
  3 12  4  0
  3 14  1  0
  3 23  4  0
  4 13  4  0
  4 21  4  0
  4 24  1  0
  5  8  4  0
  5 23  4  0
  6 18  2  0
  7 15  4  0
  7 16  1  0
  7 27  4  0
  8 18  1  0
 10 18  1  0
 10 20  1  0
 11 15  4  0
 11 26  1  0
 13 22  4  0
 16 19  1  0
 16 20  2  0
 17 19  4  0
 17 21  4  0
 19 22  4  0
 20 28  1  0
 25 27  4  0
M  END
$$$$

 Created by Python create_sdf_string function

 28 30  0  0  0  0  0  0  0  0999 V2000
   11.4592   11.2893   18.7941 C   0  0  0  0  0  0  0  0  0  0  0  0
    3.4202    7.9009   20.3866 C   0  0  0  0  0  0  0  0  0  0  0  0
   13.5280   10.3522   19.3586 C   0  0  0  0  0  0  0  0  0  0  0  0
    9.6923    5.6468   22.7891 C   0  0  0  0  0  0  0  0  0  0  0  0
   11.7756   10.2554   20.8841 N   0  0  0  0  0  0  0  0  0  0  0  0
    8.9876   11.9370   19.8757 O   0  0  0  0  0  0  0  0  0  0  0  0
    6.0167    8.4478   21.1089 C   0  0  0  0  0  0  0  0  0  0  0  0
   11.0002   10.8890   20.0262 C   0  0  0  0  0  0  0  0  0  0  0  0
    2.1721    7.7393   20.0315 O   0  0  0  0  0  0  0  0  0  0  0  0
    9.1107   10.3880   21.3769 N   0  0  0  0  0  0  0  0  0  0  0  0
    3.9102    9.2008   20.3124 C   0  0  0  0  0  0  0  0  0  0  0  0
   12.7292   10.9960   18.4597 C   0  0  0  0  0  0  0  0  0  0  0  0
    9.3798    6.6793   23.6625 C   0  0  0  0  0  0  0  0  0  0  0  0
   14.7425   10.0739   19.0802 O   0  0  0  0  0  0  0  0  0  0  0  0
    5.1894    9.4673   20.7118 C   0  0  0  0  0  0  0  0  0  0  0  0
    7.3773    8.8224   21.4870 C   0  0  0  0  0  0  0  0  0  0  0  0
    8.4391    6.6439   21.0235 C   0  0  0  0  0  0  0  0  0  0  0  0
    9.6494   11.1353   20.4167 C   0  0  0  0  0  0  0  0  0  0  0  0
    8.1431    7.6829   21.9046 C   0  0  0  0  0  0  0  0  0  0  0  0
    7.7796   10.1314   21.5115 N   0  0  0  0  0  0  0  0  0  0  0  0
    9.2768    5.6183   21.4437 C   0  0  0  0  0  0  0  0  0  0  0  0
    8.6315    7.7322   23.1768 C   0  0  0  0  0  0  0  0  0  0  0  0
   13.0537    9.9821   20.5781 C   0  0  0  0  0  0  0  0  0  0  0  0
   10.3850    4.6575   23.2386 O   0  0  0  0  0  0  0  0  0  0  0  0
    4.2069    6.8450   20.7994 C   0  0  0  0  0  0  0  0  0  0  0  0
    3.0726   10.1043   19.8522 O   0  0  0  0  0  0  0  0  0  0  0  0
    5.5057    7.1196   21.1155 C   0  0  0  0  0  0  0  0  0  0  0  0
    7.0367   11.0229   21.9948 O   0  0  0  0  0  0  0  0  0  0  0  0
  1  8  4  0
  1 12  4  0
  2  9  1  0
  2 11  4  0
  2 25  4  0
  3 12  4  0
  3 14  1  0
  3 23  4  0
  4 13  4  0
  4 21  4  0
  4 24  1  0
  5  8  4  0
  5 23  4  0
  6 18  2  0
  7 15  4  0
  7 16  1  0
  7 27  4  0
  8 18  1  0
 10 18  1  0
 10 20  1  0
 11 15  4  0
 11 26  1  0
 13 22  4  0
 16 19  1  0
 16 20  2  0
 17 19  4  0
 17 21  4  0
 19 22  4  0
 20 28  1  0
 25 27  4  0
M  END
$$$$

 Created by Python create_sdf_string function

 28 30  0  0  0  0  0  0  0  0999 V2000
   11.4592   11.2893   18.7941 C   0  0  0  0  0  0  0  0  0  0  0  0
    3.4202    7.9009   20.3866 C   0  0  0  0  0  0  0  0  0  0  0  0
   13.5280   10.3522   19.3586 C   0  0  0  0  0  0  0  0  0  0  0  0
    9.6923    5.6468   22.7891 C   0  0  0  0  0  0  0  0  0  0  0  0
   11.7756   10.2554   20.8841 N   0  0  0  0  0  0  0  0  0  0  0  0
    8.9876   11.9370   19.8757 O   0  0  0  0  0  0  0  0  0  0  0  0
    6.0167    8.4478   21.1089 C   0  0  0  0  0  0  0  0  0  0  0  0
   11.0002   10.8890   20.0262 C   0  0  0  0  0  0  0  0  0  0  0  0
    2.1721    7.7393   20.0315 O   0  0  0  0  0  0  0  0  0  0  0  0
    9.1107   10.3880   21.3769 N   0  0  0  0  0  0  0  0  0  0  0  0
    3.9102    9.2008   20.3124 C   0  0  0  0  0  0  0  0  0  0  0  0
   12.7292   10.9960   18.4597 C   0  0  0  0  0  0  0  0  0  0  0  0
    9.3798    6.6793   23.6625 C   0  0  0  0  0  0  0  0  0  0  0  0
   14.7425   10.0739   19.0802 O   0  0  0  0  0  0  0  0  0  0  0  0
    5.1894    9.4673   20.7118 C   0  0  0  0  0  0  0  0  0  0  0  0
    7.3773    8.8224   21.4870 C   0  0  0  0  0  0  0  0  0  0  0  0
    8.4391    6.6439   21.0235 C   0  0  0  0  0  0  0  0  0  0  0  0
    9.6494   11.1353   20.4167 C   0  0  0  0  0  0  0  0  0  0  0  0
    8.1431    7.6829   21.9046 C   0  0  0  0  0  0  0  0  0  0  0  0
    7.7796   10.1314   21.5115 N   0  0  0  0  0  0  0  0  0  0  0  0
    9.2768    5.6183   21.4437 C   0  0  0  0  0  0  0  0  0  0  0  0
    8.6315    7.7322   23.1768 C   0  0  0  0  0  0  0  0  0  0  0  0
   13.0537    9.9821   20.5781 C   0  0  0  0  0  0  0  0  0  0  0  0
   10.3850    4.6575   23.2386 O   0  0  0  0  0  0  0  0  0  0  0  0
    4.2069    6.8450   20.7994 C   0  0  0  0  0  0  0  0  0  0  0  0
    3.0726   10.1043   19.8522 O   0  0  0  0  0  0  0  0  0  0  0  0
    5.5057    7.1196   21.1155 C   0  0  0  0  0  0  0  0  0  0  0  0
    7.0367   11.0229   21.9948 O   0  0  0  0  0  0  0  0  0  0  0  0
  1  8  4  0
  1 12  4  0
  2  9  1  0
  2 11  4  0
  2 25  4  0
  3 12  4  0
  3 14  1  0
  3 23  4  0
  4 13  4  0
  4 21  4  0
  4 24  1  0
  5  8  4  0
  5 23  4  0
  6 18  2  0
  7 15  4  0
  7 16  1  0
  7 27  4  0
  8 18  1  0
 10 18  1  0
 10 20  1  0
 11 15  4  0
 11 26  1  0
 13 22  4  0
 16 19  1  0
 16 20  2  0
 17 19  4  0
 17 21  4  0
 19 22  4  0
 20 28  1  0
 25 27  4  0
M  END
$$$$

 Created by Python create_sdf_string function

 28 30  0  0  0  0  0  0  0  0999 V2000
   11.4592   11.2893   18.7941 C   0  0  0  0  0  0  0  0  0  0  0  0
    3.4202    7.9009   20.3866 C   0  0  0  0  0  0  0  0  0  0  0  0
   13.5280   10.3522   19.3586 C   0  0  0  0  0  0  0  0  0  0  0  0
    9.6923    5.6468   22.7891 C   0  0  0  0  0  0  0  0  0  0  0  0
   11.7756   10.2554   20.8841 N   0  0  0  0  0  0  0  0  0  0  0  0
    8.9876   11.9370   19.8757 O   0  0  0  0  0  0  0  0  0  0  0  0
    6.0167    8.4478   21.1089 C   0  0  0  0  0  0  0  0  0  0  0  0
   11.0002   10.8890   20.0262 C   0  0  0  0  0  0  0  0  0  0  0  0
    2.1721    7.7393   20.0315 O   0  0  0  0  0  0  0  0  0  0  0  0
    9.1107   10.3880   21.3769 N   0  0  0  0  0  0  0  0  0  0  0  0
    3.9102    9.2008   20.3124 C   0  0  0  0  0  0  0  0  0  0  0  0
   12.7292   10.9960   18.4597 C   0  0  0  0  0  0  0  0  0  0  0  0
    9.3798    6.6793   23.6625 C   0  0  0  0  0  0  0  0  0  0  0  0
   14.7425   10.0739   19.0802 O   0  0  0  0  0  0  0  0  0  0  0  0
    5.1894    9.4673   20.7118 C   0  0  0  0  0  0  0  0  0  0  0  0
    7.3773    8.8224   21.4870 C   0  0  0  0  0  0  0  0  0  0  0  0
    8.4391    6.6439   21.0235 C   0  0  0  0  0  0  0  0  0  0  0  0
    9.6494   11.1353   20.4167 C   0  0  0  0  0  0  0  0  0  0  0  0
    8.1431    7.6829   21.9046 C   0  0  0  0  0  0  0  0  0  0  0  0
    7.7796   10.1314   21.5115 N   0  0  0  0  0  0  0  0  0  0  0  0
    9.2768    5.6183   21.4437 C   0  0  0  0  0  0  0  0  0  0  0  0
    8.6315    7.7322   23.1768 C   0  0  0  0  0  0  0  0  0  0  0  0
   13.0537    9.9821   20.5781 C   0  0  0  0  0  0  0  0  0  0  0  0
   10.3850    4.6575   23.2386 O   0  0  0  0  0  0  0  0  0  0  0  0
    4.2069    6.8450   20.7994 C   0  0  0  0  0  0  0  0  0  0  0  0
    3.0726   10.1043   19.8522 O   0  0  0  0  0  0  0  0  0  0  0  0
    5.5057    7.1196   21.1155 C   0  0  0  0  0  0  0  0  0  0  0  0
    7.0367   11.0229   21.9948 O   0  0  0  0  0  0  0  0  0  0  0  0
  1  8  4  0
  1 12  4  0
  2  9  1  0
  2 11  4  0
  2 25  4  0
  3 12  4  0
  3 14  1  0
  3 23  4  0
  4 13  4  0
  4 21  4  0
  4 24  1  0
  5  8  4  0
  5 23  4  0
  6 18  2  0
  7 15  4  0
  7 16  1  0
  7 27  4  0
  8 18  1  0
 10 18  1  0
 10 20  1  0
 11 15  4  0
 11 26  1  0
 13 22  4  0
 16 19  1  0
 16 20  2  0
 17 19  4  0
 17 21  4  0
 19 22  4  0
 20 28  1  0
 25 27  4  0
M  END
$$$$

 Created by Python create_sdf_string function

 28 30  0  0  0  0  0  0  0  0999 V2000
   11.4592   11.2893   18.7941 C   0  0  0  0  0  0  0  0  0  0  0  0
    3.4202    7.9009   20.3866 C   0  0  0  0  0  0  0  0  0  0  0  0
   13.5280   10.3522   19.3586 C   0  0  0  0  0  0  0  0  0  0  0  0
    9.6923    5.6468   22.7891 C   0  0  0  0  0  0  0  0  0  0  0  0
   11.7756   10.2554   20.8841 N   0  0  0  0  0  0  0  0  0  0  0  0
    8.9876   11.9370   19.8757 O   0  0  0  0  0  0  0  0  0  0  0  0
    6.0167    8.4478   21.1089 C   0  0  0  0  0  0  0  0  0  0  0  0
   11.0002   10.8890   20.0262 C   0  0  0  0  0  0  0  0  0  0  0  0
    2.1721    7.7393   20.0315 O   0  0  0  0  0  0  0  0  0  0  0  0
    9.1107   10.3880   21.3769 N   0  0  0  0  0  0  0  0  0  0  0  0
    3.9102    9.2008   20.3124 C   0  0  0  0  0  0  0  0  0  0  0  0
   12.7292   10.9960   18.4597 C   0  0  0  0  0  0  0  0  0  0  0  0
    9.3798    6.6793   23.6625 C   0  0  0  0  0  0  0  0  0  0  0  0
   14.7425   10.0739   19.0802 O   0  0  0  0  0  0  0  0  0  0  0  0
    5.1894    9.4673   20.7118 C   0  0  0  0  0  0  0  0  0  0  0  0
    7.3773    8.8224   21.4870 C   0  0  0  0  0  0  0  0  0  0  0  0
    8.4391    6.6439   21.0235 C   0  0  0  0  0  0  0  0  0  0  0  0
    9.6494   11.1353   20.4167 C   0  0  0  0  0  0  0  0  0  0  0  0
    8.1431    7.6829   21.9046 C   0  0  0  0  0  0  0  0  0  0  0  0
    7.7796   10.1314   21.5115 N   0  0  0  0  0  0  0  0  0  0  0  0
    9.2768    5.6183   21.4437 C   0  0  0  0  0  0  0  0  0  0  0  0
    8.6315    7.7322   23.1768 C   0  0  0  0  0  0  0  0  0  0  0  0
   13.0537    9.9821   20.5781 C   0  0  0  0  0  0  0  0  0  0  0  0
   10.3850    4.6575   23.2386 O   0  0  0  0  0  0  0  0  0  0  0  0
    4.2069    6.8450   20.7994 C   0  0  0  0  0  0  0  0  0  0  0  0
    3.0726   10.1043   19.8522 O   0  0  0  0  0  0  0  0  0  0  0  0
    5.5057    7.1196   21.1155 C   0  0  0  0  0  0  0  0  0  0  0  0
    7.0367   11.0229   21.9948 O   0  0  0  0  0  0  0  0  0  0  0  0
  1  8  4  0
  1 12  4  0
  2  9  1  0
  2 11  4  0
  2 25  4  0
  3 12  4  0
  3 14  1  0
  3 23  4  0
  4 13  4  0
  4 21  4  0
  4 24  1  0
  5  8  4  0
  5 23  4  0
  6 18  2  0
  7 15  4  0
  7 16  1  0
  7 27  4  0
  8 18  1  0
 10 18  1  0
 10 20  1  0
 11 15  4  0
 11 26  1  0
 13 22  4  0
 16 19  1  0
 16 20  2  0
 17 19  4  0
 17 21  4  0
 19 22  4  0
 20 28  1  0
 25 27  4  0
M  END
$$$$

 Created by Python create_sdf_string function

 28 30  0  0  0  0  0  0  0  0999 V2000
   11.4592   11.2893   18.7941 C   0  0  0  0  0  0  0  0  0  0  0  0
    3.4202    7.9009   20.3866 C   0  0  0  0  0  0  0  0  0  0  0  0
   13.5280   10.3522   19.3586 C   0  0  0  0  0  0  0  0  0  0  0  0
    9.6923    5.6468   22.7891 C   0  0  0  0  0  0  0  0  0  0  0  0
   11.7756   10.2554   20.8841 N   0  0  0  0  0  0  0  0  0  0  0  0
    8.9876   11.9370   19.8757 O   0  0  0  0  0  0  0  0  0  0  0  0
    6.0167    8.4478   21.1089 C   0  0  0  0  0  0  0  0  0  0  0  0
   11.0002   10.8890   20.0262 C   0  0  0  0  0  0  0  0  0  0  0  0
    2.1721    7.7393   20.0315 O   0  0  0  0  0  0  0  0  0  0  0  0
    9.1107   10.3880   21.3769 N   0  0  0  0  0  0  0  0  0  0  0  0
    3.9102    9.2008   20.3124 C   0  0  0  0  0  0  0  0  0  0  0  0
   12.7292   10.9960   18.4597 C   0  0  0  0  0  0  0  0  0  0  0  0
    9.3798    6.6793   23.6625 C   0  0  0  0  0  0  0  0  0  0  0  0
   14.7425   10.0739   19.0802 O   0  0  0  0  0  0  0  0  0  0  0  0
    5.1894    9.4673   20.7118 C   0  0  0  0  0  0  0  0  0  0  0  0
    7.3773    8.8224   21.4870 C   0  0  0  0  0  0  0  0  0  0  0  0
    8.4391    6.6439   21.0235 C   0  0  0  0  0  0  0  0  0  0  0  0
    9.6494   11.1353   20.4167 C   0  0  0  0  0  0  0  0  0  0  0  0
    8.1431    7.6829   21.9046 C   0  0  0  0  0  0  0  0  0  0  0  0
    7.7796   10.1314   21.5115 N   0  0  0  0  0  0  0  0  0  0  0  0
    9.2768    5.6183   21.4437 C   0  0  0  0  0  0  0  0  0  0  0  0
    8.6315    7.7322   23.1768 C   0  0  0  0  0  0  0  0  0  0  0  0
   13.0537    9.9821   20.5781 C   0  0  0  0  0  0  0  0  0  0  0  0
   10.3850    4.6575   23.2386 O   0  0  0  0  0  0  0  0  0  0  0  0
    4.2069    6.8450   20.7994 C   0  0  0  0  0  0  0  0  0  0  0  0
    3.0726   10.1043   19.8522 O   0  0  0  0  0  0  0  0  0  0  0  0
    5.5057    7.1196   21.1155 C   0  0  0  0  0  0  0  0  0  0  0  0
    7.0367   11.0229   21.9948 O   0  0  0  0  0  0  0  0  0  0  0  0
  1  8  4  0
  1 12  4  0
  2  9  1  0
  2 11  4  0
  2 25  4  0
  3 12  4  0
  3 14  1  0
  3 23  4  0
  4 13  4  0
  4 21  4  0
  4 24  1  0
  5  8  4  0
  5 23  4  0
  6 18  2  0
  7 15  4  0
  7 16  1  0
  7 27  4  0
  8 18  1  0
 10 18  1  0
 10 20  1  0
 11 15  4  0
 11 26  1  0
 13 22  4  0
 16 19  1  0
 16 20  2  0
 17 19  4  0
 17 21  4  0
 19 22  4  0
 20 28  1  0
 25 27  4  0
M  END
$$$$

 Created by Python create_sdf_string function

 28 30  0  0  0  0  0  0  0  0999 V2000
   11.4592   11.2893   18.7941 C   0  0  0  0  0  0  0  0  0  0  0  0
    3.4202    7.9009   20.3866 C   0  0  0  0  0  0  0  0  0  0  0  0
   13.5280   10.3522   19.3586 C   0  0  0  0  0  0  0  0  0  0  0  0
    9.6923    5.6468   22.7891 C   0  0  0  0  0  0  0  0  0  0  0  0
   11.7756   10.2554   20.8841 N   0  0  0  0  0  0  0  0  0  0  0  0
    8.9876   11.9370   19.8757 O   0  0  0  0  0  0  0  0  0  0  0  0
    6.0167    8.4478   21.1089 C   0  0  0  0  0  0  0  0  0  0  0  0
   11.0002   10.8890   20.0262 C   0  0  0  0  0  0  0  0  0  0  0  0
    2.1721    7.7393   20.0315 O   0  0  0  0  0  0  0  0  0  0  0  0
    9.1107   10.3880   21.3769 N   0  0  0  0  0  0  0  0  0  0  0  0
    3.9102    9.2008   20.3124 C   0  0  0  0  0  0  0  0  0  0  0  0
   12.7292   10.9960   18.4597 C   0  0  0  0  0  0  0  0  0  0  0  0
    9.3798    6.6793   23.6625 C   0  0  0  0  0  0  0  0  0  0  0  0
   14.7425   10.0739   19.0802 O   0  0  0  0  0  0  0  0  0  0  0  0
    5.1894    9.4673   20.7118 C   0  0  0  0  0  0  0  0  0  0  0  0
    7.3773    8.8224   21.4870 C   0  0  0  0  0  0  0  0  0  0  0  0
    8.4391    6.6439   21.0235 C   0  0  0  0  0  0  0  0  0  0  0  0
    9.6494   11.1353   20.4167 C   0  0  0  0  0  0  0  0  0  0  0  0
    8.1431    7.6829   21.9046 C   0  0  0  0  0  0  0  0  0  0  0  0
    7.7796   10.1314   21.5115 N   0  0  0  0  0  0  0  0  0  0  0  0
    9.2768    5.6183   21.4437 C   0  0  0  0  0  0  0  0  0  0  0  0
    8.6315    7.7322   23.1768 C   0  0  0  0  0  0  0  0  0  0  0  0
   13.0537    9.9821   20.5781 C   0  0  0  0  0  0  0  0  0  0  0  0
   10.3850    4.6575   23.2386 O   0  0  0  0  0  0  0  0  0  0  0  0
    4.2069    6.8450   20.7994 C   0  0  0  0  0  0  0  0  0  0  0  0
    3.0726   10.1043   19.8522 O   0  0  0  0  0  0  0  0  0  0  0  0
    5.5057    7.1196   21.1155 C   0  0  0  0  0  0  0  0  0  0  0  0
    7.0367   11.0229   21.9948 O   0  0  0  0  0  0  0  0  0  0  0  0
  1  8  4  0
  1 12  4  0
  2  9  1  0
  2 11  4  0
  2 25  4  0
  3 12  4  0
  3 14  1  0
  3 23  4  0
  4 13  4  0
  4 21  4  0
  4 24  1  0
  5  8  4  0
  5 23  4  0
  6 18  2  0
  7 15  4  0
  7 16  1  0
  7 27  4  0
  8 18  1  0
 10 18  1  0
 10 20  1  0
 11 15  4  0
 11 26  1  0
 13 22  4  0
 16 19  1  0
 16 20  2  0
 17 19  4  0
 17 21  4  0
 19 22  4  0
 20 28  1  0
 25 27  4  0
M  END
$$$$

 Created by Python create_sdf_string function

 28 30  0  0  0  0  0  0  0  0999 V2000
   11.4592   11.2893   18.7941 C   0  0  0  0  0  0  0  0  0  0  0  0
    3.4202    7.9009   20.3866 C   0  0  0  0  0  0  0  0  0  0  0  0
   13.5280   10.3522   19.3586 C   0  0  0  0  0  0  0  0  0  0  0  0
    9.6923    5.6468   22.7891 C   0  0  0  0  0  0  0  0  0  0  0  0
   11.7756   10.2554   20.8841 N   0  0  0  0  0  0  0  0  0  0  0  0
    8.9876   11.9370   19.8757 O   0  0  0  0  0  0  0  0  0  0  0  0
    6.0167    8.4478   21.1089 C   0  0  0  0  0  0  0  0  0  0  0  0
   11.0002   10.8890   20.0262 C   0  0  0  0  0  0  0  0  0  0  0  0
    2.1721    7.7393   20.0315 O   0  0  0  0  0  0  0  0  0  0  0  0
    9.1107   10.3880   21.3769 N   0  0  0  0  0  0  0  0  0  0  0  0
    3.9102    9.2008   20.3124 C   0  0  0  0  0  0  0  0  0  0  0  0
   12.7292   10.9960   18.4597 C   0  0  0  0  0  0  0  0  0  0  0  0
    9.3798    6.6793   23.6625 C   0  0  0  0  0  0  0  0  0  0  0  0
   14.7425   10.0739   19.0802 O   0  0  0  0  0  0  0  0  0  0  0  0
    5.1894    9.4673   20.7118 C   0  0  0  0  0  0  0  0  0  0  0  0
    7.3773    8.8224   21.4870 C   0  0  0  0  0  0  0  0  0  0  0  0
    8.4391    6.6439   21.0235 C   0  0  0  0  0  0  0  0  0  0  0  0
    9.6494   11.1353   20.4167 C   0  0  0  0  0  0  0  0  0  0  0  0
    8.1431    7.6829   21.9046 C   0  0  0  0  0  0  0  0  0  0  0  0
    7.7796   10.1314   21.5115 N   0  0  0  0  0  0  0  0  0  0  0  0
    9.2768    5.6183   21.4437 C   0  0  0  0  0  0  0  0  0  0  0  0
    8.6315    7.7322   23.1768 C   0  0  0  0  0  0  0  0  0  0  0  0
   13.0537    9.9821   20.5781 C   0  0  0  0  0  0  0  0  0  0  0  0
   10.3850    4.6575   23.2386 O   0  0  0  0  0  0  0  0  0  0  0  0
    4.2069    6.8450   20.7994 C   0  0  0  0  0  0  0  0  0  0  0  0
    3.0726   10.1043   19.8522 O   0  0  0  0  0  0  0  0  0  0  0  0
    5.5057    7.1196   21.1155 C   0  0  0  0  0  0  0  0  0  0  0  0
    7.0367   11.0229   21.9948 O   0  0  0  0  0  0  0  0  0  0  0  0
  1  8  4  0
  1 12  4  0
  2  9  1  0
  2 11  4  0
  2 25  4  0
  3 12  4  0
  3 14  1  0
  3 23  4  0
  4 13  4  0
  4 21  4  0
  4 24  1  0
  5  8  4  0
  5 23  4  0
  6 18  2  0
  7 15  4  0
  7 16  1  0
  7 27  4  0
  8 18  1  0
 10 18  1  0
 10 20  1  0
 11 15  4  0
 11 26  1  0
 13 22  4  0
 16 19  1  0
 16 20  2  0
 17 19  4  0
 17 21  4  0
 19 22  4  0
 20 28  1  0
 25 27  4  0
M  END
$$$$

 Created by Python create_sdf_string function

 28 30  0  0  0  0  0  0  0  0999 V2000
   11.4592   11.2893   18.7941 C   0  0  0  0  0  0  0  0  0  0  0  0
    3.4202    7.9009   20.3866 C   0  0  0  0  0  0  0  0  0  0  0  0
   13.5280   10.3522   19.3586 C   0  0  0  0  0  0  0  0  0  0  0  0
    9.6923    5.6468   22.7891 C   0  0  0  0  0  0  0  0  0  0  0  0
   11.7756   10.2554   20.8841 N   0  0  0  0  0  0  0  0  0  0  0  0
    8.9876   11.9370   19.8757 O   0  0  0  0  0  0  0  0  0  0  0  0
    6.0167    8.4478   21.1089 C   0  0  0  0  0  0  0  0  0  0  0  0
   11.0002   10.8890   20.0262 C   0  0  0  0  0  0  0  0  0  0  0  0
    2.1721    7.7393   20.0315 O   0  0  0  0  0  0  0  0  0  0  0  0
    9.1107   10.3880   21.3769 N   0  0  0  0  0  0  0  0  0  0  0  0
    3.9102    9.2008   20.3124 C   0  0  0  0  0  0  0  0  0  0  0  0
   12.7292   10.9960   18.4597 C   0  0  0  0  0  0  0  0  0  0  0  0
    9.3798    6.6793   23.6625 C   0  0  0  0  0  0  0  0  0  0  0  0
   14.7425   10.0739   19.0802 O   0  0  0  0  0  0  0  0  0  0  0  0
    5.1894    9.4673   20.7118 C   0  0  0  0  0  0  0  0  0  0  0  0
    7.3773    8.8224   21.4870 C   0  0  0  0  0  0  0  0  0  0  0  0
    8.4391    6.6439   21.0235 C   0  0  0  0  0  0  0  0  0  0  0  0
    9.6494   11.1353   20.4167 C   0  0  0  0  0  0  0  0  0  0  0  0
    8.1431    7.6829   21.9046 C   0  0  0  0  0  0  0  0  0  0  0  0
    7.7796   10.1314   21.5115 N   0  0  0  0  0  0  0  0  0  0  0  0
    9.2768    5.6183   21.4437 C   0  0  0  0  0  0  0  0  0  0  0  0
    8.6315    7.7322   23.1768 C   0  0  0  0  0  0  0  0  0  0  0  0
   13.0537    9.9821   20.5781 C   0  0  0  0  0  0  0  0  0  0  0  0
   10.3850    4.6575   23.2386 O   0  0  0  0  0  0  0  0  0  0  0  0
    4.2069    6.8450   20.7994 C   0  0  0  0  0  0  0  0  0  0  0  0
    3.0726   10.1043   19.8522 O   0  0  0  0  0  0  0  0  0  0  0  0
    5.5057    7.1196   21.1155 C   0  0  0  0  0  0  0  0  0  0  0  0
    7.0367   11.0229   21.9948 O   0  0  0  0  0  0  0  0  0  0  0  0
  1  8  4  0
  1 12  4  0
  2  9  1  0
  2 11  4  0
  2 25  4  0
  3 12  4  0
  3 14  1  0
  3 23  4  0
  4 13  4  0
  4 21  4  0
  4 24  1  0
  5  8  4  0
  5 23  4  0
  6 18  2  0
  7 15  4  0
  7 16  1  0
  7 27  4  0
  8 18  1  0
 10 18  1  0
 10 20  1  0
 11 15  4  0
 11 26  1  0
 13 22  4  0
 16 19  1  0
 16 20  2  0
 17 19  4  0
 17 21  4  0
 19 22  4  0
 20 28  1  0
 25 27  4  0
M  END
$$$$

 Created by Python create_sdf_string function

 28 30  0  0  0  0  0  0  0  0999 V2000
   11.4592   11.2893   18.7941 C   0  0  0  0  0  0  0  0  0  0  0  0
    3.4202    7.9009   20.3866 C   0  0  0  0  0  0  0  0  0  0  0  0
   13.5280   10.3522   19.3586 C   0  0  0  0  0  0  0  0  0  0  0  0
    9.6923    5.6468   22.7891 C   0  0  0  0  0  0  0  0  0  0  0  0
   11.7756   10.2554   20.8841 N   0  0  0  0  0  0  0  0  0  0  0  0
    8.9876   11.9370   19.8757 O   0  0  0  0  0  0  0  0  0  0  0  0
    6.0167    8.4478   21.1089 C   0  0  0  0  0  0  0  0  0  0  0  0
   11.0002   10.8890   20.0262 C   0  0  0  0  0  0  0  0  0  0  0  0
    2.1721    7.7393   20.0315 O   0  0  0  0  0  0  0  0  0  0  0  0
    9.1107   10.3880   21.3769 N   0  0  0  0  0  0  0  0  0  0  0  0
    3.9102    9.2008   20.3124 C   0  0  0  0  0  0  0  0  0  0  0  0
   12.7292   10.9960   18.4597 C   0  0  0  0  0  0  0  0  0  0  0  0
    9.3798    6.6793   23.6625 C   0  0  0  0  0  0  0  0  0  0  0  0
   14.7425   10.0739   19.0802 O   0  0  0  0  0  0  0  0  0  0  0  0
    5.1894    9.4673   20.7118 C   0  0  0  0  0  0  0  0  0  0  0  0
    7.3773    8.8224   21.4870 C   0  0  0  0  0  0  0  0  0  0  0  0
    8.4391    6.6439   21.0235 C   0  0  0  0  0  0  0  0  0  0  0  0
    9.6494   11.1353   20.4167 C   0  0  0  0  0  0  0  0  0  0  0  0
    8.1431    7.6829   21.9046 C   0  0  0  0  0  0  0  0  0  0  0  0
    7.7796   10.1314   21.5115 N   0  0  0  0  0  0  0  0  0  0  0  0
    9.2768    5.6183   21.4437 C   0  0  0  0  0  0  0  0  0  0  0  0
    8.6315    7.7322   23.1768 C   0  0  0  0  0  0  0  0  0  0  0  0
   13.0537    9.9821   20.5781 C   0  0  0  0  0  0  0  0  0  0  0  0
   10.3850    4.6575   23.2386 O   0  0  0  0  0  0  0  0  0  0  0  0
    4.2069    6.8450   20.7994 C   0  0  0  0  0  0  0  0  0  0  0  0
    3.0726   10.1043   19.8522 O   0  0  0  0  0  0  0  0  0  0  0  0
    5.5057    7.1196   21.1155 C   0  0  0  0  0  0  0  0  0  0  0  0
    7.0367   11.0229   21.9948 O   0  0  0  0  0  0  0  0  0  0  0  0
  1  8  4  0
  1 12  4  0
  2  9  1  0
  2 11  4  0
  2 25  4  0
  3 12  4  0
  3 14  1  0
  3 23  4  0
  4 13  4  0
  4 21  4  0
  4 24  1  0
  5  8  4  0
  5 23  4  0
  6 18  2  0
  7 15  4  0
  7 16  1  0
  7 27  4  0
  8 18  1  0
 10 18  1  0
 10 20  1  0
 11 15  4  0
 11 26  1  0
 13 22  4  0
 16 19  1  0
 16 20  2  0
 17 19  4  0
 17 21  4  0
 19 22  4  0
 20 28  1  0
 25 27  4  0
M  END
$$$$

 Created by Python create_sdf_string function

 28 30  0  0  0  0  0  0  0  0999 V2000
   11.4592   11.2893   18.7941 C   0  0  0  0  0  0  0  0  0  0  0  0
    3.4202    7.9009   20.3866 C   0  0  0  0  0  0  0  0  0  0  0  0
   13.5280   10.3522   19.3586 C   0  0  0  0  0  0  0  0  0  0  0  0
    9.6923    5.6468   22.7891 C   0  0  0  0  0  0  0  0  0  0  0  0
   11.7756   10.2554   20.8841 N   0  0  0  0  0  0  0  0  0  0  0  0
    8.9876   11.9370   19.8757 O   0  0  0  0  0  0  0  0  0  0  0  0
    6.0167    8.4478   21.1089 C   0  0  0  0  0  0  0  0  0  0  0  0
   11.0002   10.8890   20.0262 C   0  0  0  0  0  0  0  0  0  0  0  0
    2.1721    7.7393   20.0315 O   0  0  0  0  0  0  0  0  0  0  0  0
    9.1107   10.3880   21.3769 N   0  0  0  0  0  0  0  0  0  0  0  0
    3.9102    9.2008   20.3124 C   0  0  0  0  0  0  0  0  0  0  0  0
   12.7292   10.9960   18.4597 C   0  0  0  0  0  0  0  0  0  0  0  0
    9.3798    6.6793   23.6625 C   0  0  0  0  0  0  0  0  0  0  0  0
   14.7425   10.0739   19.0802 O   0  0  0  0  0  0  0  0  0  0  0  0
    5.1894    9.4673   20.7118 C   0  0  0  0  0  0  0  0  0  0  0  0
    7.3773    8.8224   21.4870 C   0  0  0  0  0  0  0  0  0  0  0  0
    8.4391    6.6439   21.0235 C   0  0  0  0  0  0  0  0  0  0  0  0
    9.6494   11.1353   20.4167 C   0  0  0  0  0  0  0  0  0  0  0  0
    8.1431    7.6829   21.9046 C   0  0  0  0  0  0  0  0  0  0  0  0
    7.7796   10.1314   21.5115 N   0  0  0  0  0  0  0  0  0  0  0  0
    9.2768    5.6183   21.4437 C   0  0  0  0  0  0  0  0  0  0  0  0
    8.6315    7.7322   23.1768 C   0  0  0  0  0  0  0  0  0  0  0  0
   13.0537    9.9821   20.5781 C   0  0  0  0  0  0  0  0  0  0  0  0
   10.3850    4.6575   23.2386 O   0  0  0  0  0  0  0  0  0  0  0  0
    4.2069    6.8450   20.7994 C   0  0  0  0  0  0  0  0  0  0  0  0
    3.0726   10.1043   19.8522 O   0  0  0  0  0  0  0  0  0  0  0  0
    5.5057    7.1196   21.1155 C   0  0  0  0  0  0  0  0  0  0  0  0
    7.0367   11.0229   21.9948 O   0  0  0  0  0  0  0  0  0  0  0  0
  1  8  4  0
  1 12  4  0
  2  9  1  0
  2 11  4  0
  2 25  4  0
  3 12  4  0
  3 14  1  0
  3 23  4  0
  4 13  4  0
  4 21  4  0
  4 24  1  0
  5  8  4  0
  5 23  4  0
  6 18  2  0
  7 15  4  0
  7 16  1  0
  7 27  4  0
  8 18  1  0
 10 18  1  0
 10 20  1  0
 11 15  4  0
 11 26  1  0
 13 22  4  0
 16 19  1  0
 16 20  2  0
 17 19  4  0
 17 21  4  0
 19 22  4  0
 20 28  1  0
 25 27  4  0
M  END
$$$$

 Created by Python create_sdf_string function

 28 30  0  0  0  0  0  0  0  0999 V2000
   11.4592   11.2893   18.7941 C   0  0  0  0  0  0  0  0  0  0  0  0
    3.4202    7.9009   20.3866 C   0  0  0  0  0  0  0  0  0  0  0  0
   13.5280   10.3522   19.3586 C   0  0  0  0  0  0  0  0  0  0  0  0
    9.6923    5.6468   22.7891 C   0  0  0  0  0  0  0  0  0  0  0  0
   11.7756   10.2554   20.8841 N   0  0  0  0  0  0  0  0  0  0  0  0
    8.9876   11.9370   19.8757 O   0  0  0  0  0  0  0  0  0  0  0  0
    6.0167    8.4478   21.1089 C   0  0  0  0  0  0  0  0  0  0  0  0
   11.0002   10.8890   20.0262 C   0  0  0  0  0  0  0  0  0  0  0  0
    2.1721    7.7393   20.0315 O   0  0  0  0  0  0  0  0  0  0  0  0
    9.1107   10.3880   21.3769 N   0  0  0  0  0  0  0  0  0  0  0  0
    3.9102    9.2008   20.3124 C   0  0  0  0  0  0  0  0  0  0  0  0
   12.7292   10.9960   18.4597 C   0  0  0  0  0  0  0  0  0  0  0  0
    9.3798    6.6793   23.6625 C   0  0  0  0  0  0  0  0  0  0  0  0
   14.7425   10.0739   19.0802 O   0  0  0  0  0  0  0  0  0  0  0  0
    5.1894    9.4673   20.7118 C   0  0  0  0  0  0  0  0  0  0  0  0
    7.3773    8.8224   21.4870 C   0  0  0  0  0  0  0  0  0  0  0  0
    8.4391    6.6439   21.0235 C   0  0  0  0  0  0  0  0  0  0  0  0
    9.6494   11.1353   20.4167 C   0  0  0  0  0  0  0  0  0  0  0  0
    8.1431    7.6829   21.9046 C   0  0  0  0  0  0  0  0  0  0  0  0
    7.7796   10.1314   21.5115 N   0  0  0  0  0  0  0  0  0  0  0  0
    9.2768    5.6183   21.4437 C   0  0  0  0  0  0  0  0  0  0  0  0
    8.6315    7.7322   23.1768 C   0  0  0  0  0  0  0  0  0  0  0  0
   13.0537    9.9821   20.5781 C   0  0  0  0  0  0  0  0  0  0  0  0
   10.3850    4.6575   23.2386 O   0  0  0  0  0  0  0  0  0  0  0  0
    4.2069    6.8450   20.7994 C   0  0  0  0  0  0  0  0  0  0  0  0
    3.0726   10.1043   19.8522 O   0  0  0  0  0  0  0  0  0  0  0  0
    5.5057    7.1196   21.1155 C   0  0  0  0  0  0  0  0  0  0  0  0
    7.0367   11.0229   21.9948 O   0  0  0  0  0  0  0  0  0  0  0  0
  1  8  4  0
  1 12  4  0
  2  9  1  0
  2 11  4  0
  2 25  4  0
  3 12  4  0
  3 14  1  0
  3 23  4  0
  4 13  4  0
  4 21  4  0
  4 24  1  0
  5  8  4  0
  5 23  4  0
  6 18  2  0
  7 15  4  0
  7 16  1  0
  7 27  4  0
  8 18  1  0
 10 18  1  0
 10 20  1  0
 11 15  4  0
 11 26  1  0
 13 22  4  0
 16 19  1  0
 16 20  2  0
 17 19  4  0
 17 21  4  0
 19 22  4  0
 20 28  1  0
 25 27  4  0
M  END
$$$$

 Created by Python create_sdf_string function

 28 30  0  0  0  0  0  0  0  0999 V2000
   11.4592   11.2893   18.7941 C   0  0  0  0  0  0  0  0  0  0  0  0
    3.4202    7.9009   20.3866 C   0  0  0  0  0  0  0  0  0  0  0  0
   13.5280   10.3522   19.3586 C   0  0  0  0  0  0  0  0  0  0  0  0
    9.6923    5.6468   22.7891 C   0  0  0  0  0  0  0  0  0  0  0  0
   11.7756   10.2554   20.8841 N   0  0  0  0  0  0  0  0  0  0  0  0
    8.9876   11.9370   19.8757 O   0  0  0  0  0  0  0  0  0  0  0  0
    6.0167    8.4478   21.1089 C   0  0  0  0  0  0  0  0  0  0  0  0
   11.0002   10.8890   20.0262 C   0  0  0  0  0  0  0  0  0  0  0  0
    2.1721    7.7393   20.0315 O   0  0  0  0  0  0  0  0  0  0  0  0
    9.1107   10.3880   21.3769 N   0  0  0  0  0  0  0  0  0  0  0  0
    3.9102    9.2008   20.3124 C   0  0  0  0  0  0  0  0  0  0  0  0
   12.7292   10.9960   18.4597 C   0  0  0  0  0  0  0  0  0  0  0  0
    9.3798    6.6793   23.6625 C   0  0  0  0  0  0  0  0  0  0  0  0
   14.7425   10.0739   19.0802 O   0  0  0  0  0  0  0  0  0  0  0  0
    5.1894    9.4673   20.7118 C   0  0  0  0  0  0  0  0  0  0  0  0
    7.3773    8.8224   21.4870 C   0  0  0  0  0  0  0  0  0  0  0  0
    8.4391    6.6439   21.0235 C   0  0  0  0  0  0  0  0  0  0  0  0
    9.6494   11.1353   20.4167 C   0  0  0  0  0  0  0  0  0  0  0  0
    8.1431    7.6829   21.9046 C   0  0  0  0  0  0  0  0  0  0  0  0
    7.7796   10.1314   21.5115 N   0  0  0  0  0  0  0  0  0  0  0  0
    9.2768    5.6183   21.4437 C   0  0  0  0  0  0  0  0  0  0  0  0
    8.6315    7.7322   23.1768 C   0  0  0  0  0  0  0  0  0  0  0  0
   13.0537    9.9821   20.5781 C   0  0  0  0  0  0  0  0  0  0  0  0
   10.3850    4.6575   23.2386 O   0  0  0  0  0  0  0  0  0  0  0  0
    4.2069    6.8450   20.7994 C   0  0  0  0  0  0  0  0  0  0  0  0
    3.0726   10.1043   19.8522 O   0  0  0  0  0  0  0  0  0  0  0  0
    5.5057    7.1196   21.1155 C   0  0  0  0  0  0  0  0  0  0  0  0
    7.0367   11.0229   21.9948 O   0  0  0  0  0  0  0  0  0  0  0  0
  1  8  4  0
  1 12  4  0
  2  9  1  0
  2 11  4  0
  2 25  4  0
  3 12  4  0
  3 14  1  0
  3 23  4  0
  4 13  4  0
  4 21  4  0
  4 24  1  0
  5  8  4  0
  5 23  4  0
  6 18  2  0
  7 15  4  0
  7 16  1  0
  7 27  4  0
  8 18  1  0
 10 18  1  0
 10 20  1  0
 11 15  4  0
 11 26  1  0
 13 22  4  0
 16 19  1  0
 16 20  2  0
 17 19  4  0
 17 21  4  0
 19 22  4  0
 20 28  1  0
 25 27  4  0
M  END
$$$$

 Created by Python create_sdf_string function

 28 30  0  0  0  0  0  0  0  0999 V2000
   11.4592   11.2893   18.7941 C   0  0  0  0  0  0  0  0  0  0  0  0
    3.4202    7.9009   20.3866 C   0  0  0  0  0  0  0  0  0  0  0  0
   13.5280   10.3522   19.3586 C   0  0  0  0  0  0  0  0  0  0  0  0
    9.6923    5.6468   22.7891 C   0  0  0  0  0  0  0  0  0  0  0  0
   11.7756   10.2554   20.8841 N   0  0  0  0  0  0  0  0  0  0  0  0
    8.9876   11.9370   19.8757 O   0  0  0  0  0  0  0  0  0  0  0  0
    6.0167    8.4478   21.1089 C   0  0  0  0  0  0  0  0  0  0  0  0
   11.0002   10.8890   20.0262 C   0  0  0  0  0  0  0  0  0  0  0  0
    2.1721    7.7393   20.0315 O   0  0  0  0  0  0  0  0  0  0  0  0
    9.1107   10.3880   21.3769 N   0  0  0  0  0  0  0  0  0  0  0  0
    3.9102    9.2008   20.3124 C   0  0  0  0  0  0  0  0  0  0  0  0
   12.7292   10.9960   18.4597 C   0  0  0  0  0  0  0  0  0  0  0  0
    9.3798    6.6793   23.6625 C   0  0  0  0  0  0  0  0  0  0  0  0
   14.7425   10.0739   19.0802 O   0  0  0  0  0  0  0  0  0  0  0  0
    5.1894    9.4673   20.7118 C   0  0  0  0  0  0  0  0  0  0  0  0
    7.3773    8.8224   21.4870 C   0  0  0  0  0  0  0  0  0  0  0  0
    8.4391    6.6439   21.0235 C   0  0  0  0  0  0  0  0  0  0  0  0
    9.6494   11.1353   20.4167 C   0  0  0  0  0  0  0  0  0  0  0  0
    8.1431    7.6829   21.9046 C   0  0  0  0  0  0  0  0  0  0  0  0
    7.7796   10.1314   21.5115 N   0  0  0  0  0  0  0  0  0  0  0  0
    9.2768    5.6183   21.4437 C   0  0  0  0  0  0  0  0  0  0  0  0
    8.6315    7.7322   23.1768 C   0  0  0  0  0  0  0  0  0  0  0  0
   13.0537    9.9821   20.5781 C   0  0  0  0  0  0  0  0  0  0  0  0
   10.3850    4.6575   23.2386 O   0  0  0  0  0  0  0  0  0  0  0  0
    4.2069    6.8450   20.7994 C   0  0  0  0  0  0  0  0  0  0  0  0
    3.0726   10.1043   19.8522 O   0  0  0  0  0  0  0  0  0  0  0  0
    5.5057    7.1196   21.1155 C   0  0  0  0  0  0  0  0  0  0  0  0
    7.0367   11.0229   21.9948 O   0  0  0  0  0  0  0  0  0  0  0  0
  1  8  4  0
  1 12  4  0
  2  9  1  0
  2 11  4  0
  2 25  4  0
  3 12  4  0
  3 14  1  0
  3 23  4  0
  4 13  4  0
  4 21  4  0
  4 24  1  0
  5  8  4  0
  5 23  4  0
  6 18  2  0
  7 15  4  0
  7 16  1  0
  7 27  4  0
  8 18  1  0
 10 18  1  0
 10 20  1  0
 11 15  4  0
 11 26  1  0
 13 22  4  0
 16 19  1  0
 16 20  2  0
 17 19  4  0
 17 21  4  0
 19 22  4  0
 20 28  1  0
 25 27  4  0
M  END
$$$$

 Created by Python create_sdf_string function

 28 30  0  0  0  0  0  0  0  0999 V2000
   11.4592   11.2893   18.7941 C   0  0  0  0  0  0  0  0  0  0  0  0
    3.4202    7.9009   20.3866 C   0  0  0  0  0  0  0  0  0  0  0  0
   13.5280   10.3522   19.3586 C   0  0  0  0  0  0  0  0  0  0  0  0
    9.6923    5.6468   22.7891 C   0  0  0  0  0  0  0  0  0  0  0  0
   11.7756   10.2554   20.8841 N   0  0  0  0  0  0  0  0  0  0  0  0
    8.9876   11.9370   19.8757 O   0  0  0  0  0  0  0  0  0  0  0  0
    6.0167    8.4478   21.1089 C   0  0  0  0  0  0  0  0  0  0  0  0
   11.0002   10.8890   20.0262 C   0  0  0  0  0  0  0  0  0  0  0  0
    2.1721    7.7393   20.0315 O   0  0  0  0  0  0  0  0  0  0  0  0
    9.1107   10.3880   21.3769 N   0  0  0  0  0  0  0  0  0  0  0  0
    3.9102    9.2008   20.3124 C   0  0  0  0  0  0  0  0  0  0  0  0
   12.7292   10.9960   18.4597 C   0  0  0  0  0  0  0  0  0  0  0  0
    9.3798    6.6793   23.6625 C   0  0  0  0  0  0  0  0  0  0  0  0
   14.7425   10.0739   19.0802 O   0  0  0  0  0  0  0  0  0  0  0  0
    5.1894    9.4673   20.7118 C   0  0  0  0  0  0  0  0  0  0  0  0
    7.3773    8.8224   21.4870 C   0  0  0  0  0  0  0  0  0  0  0  0
    8.4391    6.6439   21.0235 C   0  0  0  0  0  0  0  0  0  0  0  0
    9.6494   11.1353   20.4167 C   0  0  0  0  0  0  0  0  0  0  0  0
    8.1431    7.6829   21.9046 C   0  0  0  0  0  0  0  0  0  0  0  0
    7.7796   10.1314   21.5115 N   0  0  0  0  0  0  0  0  0  0  0  0
    9.2768    5.6183   21.4437 C   0  0  0  0  0  0  0  0  0  0  0  0
    8.6315    7.7322   23.1768 C   0  0  0  0  0  0  0  0  0  0  0  0
   13.0537    9.9821   20.5781 C   0  0  0  0  0  0  0  0  0  0  0  0
   10.3850    4.6575   23.2386 O   0  0  0  0  0  0  0  0  0  0  0  0
    4.2069    6.8450   20.7994 C   0  0  0  0  0  0  0  0  0  0  0  0
    3.0726   10.1043   19.8522 O   0  0  0  0  0  0  0  0  0  0  0  0
    5.5057    7.1196   21.1155 C   0  0  0  0  0  0  0  0  0  0  0  0
    7.0367   11.0229   21.9948 O   0  0  0  0  0  0  0  0  0  0  0  0
  1  8  4  0
  1 12  4  0
  2  9  1  0
  2 11  4  0
  2 25  4  0
  3 12  4  0
  3 14  1  0
  3 23  4  0
  4 13  4  0
  4 21  4  0
  4 24  1  0
  5  8  4  0
  5 23  4  0
  6 18  2  0
  7 15  4  0
  7 16  1  0
  7 27  4  0
  8 18  1  0
 10 18  1  0
 10 20  1  0
 11 15  4  0
 11 26  1  0
 13 22  4  0
 16 19  1  0
 16 20  2  0
 17 19  4  0
 17 21  4  0
 19 22  4  0
 20 28  1  0
 25 27  4  0
M  END
$$$$

 Created by Python create_sdf_string function

 28 30  0  0  0  0  0  0  0  0999 V2000
   11.4592   11.2893   18.7941 C   0  0  0  0  0  0  0  0  0  0  0  0
    3.4202    7.9009   20.3866 C   0  0  0  0  0  0  0  0  0  0  0  0
   13.5280   10.3522   19.3586 C   0  0  0  0  0  0  0  0  0  0  0  0
    9.6923    5.6468   22.7891 C   0  0  0  0  0  0  0  0  0  0  0  0
   11.7756   10.2554   20.8841 N   0  0  0  0  0  0  0  0  0  0  0  0
    8.9876   11.9370   19.8757 O   0  0  0  0  0  0  0  0  0  0  0  0
    6.0167    8.4478   21.1089 C   0  0  0  0  0  0  0  0  0  0  0  0
   11.0002   10.8890   20.0262 C   0  0  0  0  0  0  0  0  0  0  0  0
    2.1721    7.7393   20.0315 O   0  0  0  0  0  0  0  0  0  0  0  0
    9.1107   10.3880   21.3769 N   0  0  0  0  0  0  0  0  0  0  0  0
    3.9102    9.2008   20.3124 C   0  0  0  0  0  0  0  0  0  0  0  0
   12.7292   10.9960   18.4597 C   0  0  0  0  0  0  0  0  0  0  0  0
    9.3798    6.6793   23.6625 C   0  0  0  0  0  0  0  0  0  0  0  0
   14.7425   10.0739   19.0802 O   0  0  0  0  0  0  0  0  0  0  0  0
    5.1894    9.4673   20.7118 C   0  0  0  0  0  0  0  0  0  0  0  0
    7.3773    8.8224   21.4870 C   0  0  0  0  0  0  0  0  0  0  0  0
    8.4391    6.6439   21.0235 C   0  0  0  0  0  0  0  0  0  0  0  0
    9.6494   11.1353   20.4167 C   0  0  0  0  0  0  0  0  0  0  0  0
    8.1431    7.6829   21.9046 C   0  0  0  0  0  0  0  0  0  0  0  0
    7.7796   10.1314   21.5115 N   0  0  0  0  0  0  0  0  0  0  0  0
    9.2768    5.6183   21.4437 C   0  0  0  0  0  0  0  0  0  0  0  0
    8.6315    7.7322   23.1768 C   0  0  0  0  0  0  0  0  0  0  0  0
   13.0537    9.9821   20.5781 C   0  0  0  0  0  0  0  0  0  0  0  0
   10.3850    4.6575   23.2386 O   0  0  0  0  0  0  0  0  0  0  0  0
    4.2069    6.8450   20.7994 C   0  0  0  0  0  0  0  0  0  0  0  0
    3.0726   10.1043   19.8522 O   0  0  0  0  0  0  0  0  0  0  0  0
    5.5057    7.1196   21.1155 C   0  0  0  0  0  0  0  0  0  0  0  0
    7.0367   11.0229   21.9948 O   0  0  0  0  0  0  0  0  0  0  0  0
  1  8  4  0
  1 12  4  0
  2  9  1  0
  2 11  4  0
  2 25  4  0
  3 12  4  0
  3 14  1  0
  3 23  4  0
  4 13  4  0
  4 21  4  0
  4 24  1  0
  5  8  4  0
  5 23  4  0
  6 18  2  0
  7 15  4  0
  7 16  1  0
  7 27  4  0
  8 18  1  0
 10 18  1  0
 10 20  1  0
 11 15  4  0
 11 26  1  0
 13 22  4  0
 16 19  1  0
 16 20  2  0
 17 19  4  0
 17 21  4  0
 19 22  4  0
 20 28  1  0
 25 27  4  0
M  END
$$$$

 Created by Python create_sdf_string function

 28 30  0  0  0  0  0  0  0  0999 V2000
   11.4592   11.2893   18.7941 C   0  0  0  0  0  0  0  0  0  0  0  0
    3.4202    7.9009   20.3866 C   0  0  0  0  0  0  0  0  0  0  0  0
   13.5280   10.3522   19.3586 C   0  0  0  0  0  0  0  0  0  0  0  0
    9.6923    5.6468   22.7891 C   0  0  0  0  0  0  0  0  0  0  0  0
   11.7756   10.2554   20.8841 N   0  0  0  0  0  0  0  0  0  0  0  0
    8.9876   11.9370   19.8757 O   0  0  0  0  0  0  0  0  0  0  0  0
    6.0167    8.4478   21.1089 C   0  0  0  0  0  0  0  0  0  0  0  0
   11.0002   10.8890   20.0262 C   0  0  0  0  0  0  0  0  0  0  0  0
    2.1721    7.7393   20.0315 O   0  0  0  0  0  0  0  0  0  0  0  0
    9.1107   10.3880   21.3769 N   0  0  0  0  0  0  0  0  0  0  0  0
    3.9102    9.2008   20.3124 C   0  0  0  0  0  0  0  0  0  0  0  0
   12.7292   10.9960   18.4597 C   0  0  0  0  0  0  0  0  0  0  0  0
    9.3798    6.6793   23.6625 C   0  0  0  0  0  0  0  0  0  0  0  0
   14.7425   10.0739   19.0802 O   0  0  0  0  0  0  0  0  0  0  0  0
    5.1894    9.4673   20.7118 C   0  0  0  0  0  0  0  0  0  0  0  0
    7.3773    8.8224   21.4870 C   0  0  0  0  0  0  0  0  0  0  0  0
    8.4391    6.6439   21.0235 C   0  0  0  0  0  0  0  0  0  0  0  0
    9.6494   11.1353   20.4167 C   0  0  0  0  0  0  0  0  0  0  0  0
    8.1431    7.6829   21.9046 C   0  0  0  0  0  0  0  0  0  0  0  0
    7.7796   10.1314   21.5115 N   0  0  0  0  0  0  0  0  0  0  0  0
    9.2768    5.6183   21.4437 C   0  0  0  0  0  0  0  0  0  0  0  0
    8.6315    7.7322   23.1768 C   0  0  0  0  0  0  0  0  0  0  0  0
   13.0537    9.9821   20.5781 C   0  0  0  0  0  0  0  0  0  0  0  0
   10.3850    4.6575   23.2386 O   0  0  0  0  0  0  0  0  0  0  0  0
    4.2069    6.8450   20.7994 C   0  0  0  0  0  0  0  0  0  0  0  0
    3.0726   10.1043   19.8522 O   0  0  0  0  0  0  0  0  0  0  0  0
    5.5057    7.1196   21.1155 C   0  0  0  0  0  0  0  0  0  0  0  0
    7.0367   11.0229   21.9948 O   0  0  0  0  0  0  0  0  0  0  0  0
  1  8  4  0
  1 12  4  0
  2  9  1  0
  2 11  4  0
  2 25  4  0
  3 12  4  0
  3 14  1  0
  3 23  4  0
  4 13  4  0
  4 21  4  0
  4 24  1  0
  5  8  4  0
  5 23  4  0
  6 18  2  0
  7 15  4  0
  7 16  1  0
  7 27  4  0
  8 18  1  0
 10 18  1  0
 10 20  1  0
 11 15  4  0
 11 26  1  0
 13 22  4  0
 16 19  1  0
 16 20  2  0
 17 19  4  0
 17 21  4  0
 19 22  4  0
 20 28  1  0
 25 27  4  0
M  END
$$$$

 Created by Python create_sdf_string function

 28 30  0  0  0  0  0  0  0  0999 V2000
   11.4592   11.2893   18.7941 C   0  0  0  0  0  0  0  0  0  0  0  0
    3.4202    7.9009   20.3866 C   0  0  0  0  0  0  0  0  0  0  0  0
   13.5280   10.3522   19.3586 C   0  0  0  0  0  0  0  0  0  0  0  0
    9.6923    5.6468   22.7891 C   0  0  0  0  0  0  0  0  0  0  0  0
   11.7756   10.2554   20.8841 N   0  0  0  0  0  0  0  0  0  0  0  0
    8.9876   11.9370   19.8757 O   0  0  0  0  0  0  0  0  0  0  0  0
    6.0167    8.4478   21.1089 C   0  0  0  0  0  0  0  0  0  0  0  0
   11.0002   10.8890   20.0262 C   0  0  0  0  0  0  0  0  0  0  0  0
    2.1721    7.7393   20.0315 O   0  0  0  0  0  0  0  0  0  0  0  0
    9.1107   10.3880   21.3769 N   0  0  0  0  0  0  0  0  0  0  0  0
    3.9102    9.2008   20.3124 C   0  0  0  0  0  0  0  0  0  0  0  0
   12.7292   10.9960   18.4597 C   0  0  0  0  0  0  0  0  0  0  0  0
    9.3798    6.6793   23.6625 C   0  0  0  0  0  0  0  0  0  0  0  0
   14.7425   10.0739   19.0802 O   0  0  0  0  0  0  0  0  0  0  0  0
    5.1894    9.4673   20.7118 C   0  0  0  0  0  0  0  0  0  0  0  0
    7.3773    8.8224   21.4870 C   0  0  0  0  0  0  0  0  0  0  0  0
    8.4391    6.6439   21.0235 C   0  0  0  0  0  0  0  0  0  0  0  0
    9.6494   11.1353   20.4167 C   0  0  0  0  0  0  0  0  0  0  0  0
    8.1431    7.6829   21.9046 C   0  0  0  0  0  0  0  0  0  0  0  0
    7.7796   10.1314   21.5115 N   0  0  0  0  0  0  0  0  0  0  0  0
    9.2768    5.6183   21.4437 C   0  0  0  0  0  0  0  0  0  0  0  0
    8.6315    7.7322   23.1768 C   0  0  0  0  0  0  0  0  0  0  0  0
   13.0537    9.9821   20.5781 C   0  0  0  0  0  0  0  0  0  0  0  0
   10.3850    4.6575   23.2386 O   0  0  0  0  0  0  0  0  0  0  0  0
    4.2069    6.8450   20.7994 C   0  0  0  0  0  0  0  0  0  0  0  0
    3.0726   10.1043   19.8522 O   0  0  0  0  0  0  0  0  0  0  0  0
    5.5057    7.1196   21.1155 C   0  0  0  0  0  0  0  0  0  0  0  0
    7.0367   11.0229   21.9948 O   0  0  0  0  0  0  0  0  0  0  0  0
  1  8  4  0
  1 12  4  0
  2  9  1  0
  2 11  4  0
  2 25  4  0
  3 12  4  0
  3 14  1  0
  3 23  4  0
  4 13  4  0
  4 21  4  0
  4 24  1  0
  5  8  4  0
  5 23  4  0
  6 18  2  0
  7 15  4  0
  7 16  1  0
  7 27  4  0
  8 18  1  0
 10 18  1  0
 10 20  1  0
 11 15  4  0
 11 26  1  0
 13 22  4  0
 16 19  1  0
 16 20  2  0
 17 19  4  0
 17 21  4  0
 19 22  4  0
 20 28  1  0
 25 27  4  0
M  END
$$$$

 Created by Python create_sdf_string function

 28 30  0  0  0  0  0  0  0  0999 V2000
   11.4592   11.2893   18.7941 C   0  0  0  0  0  0  0  0  0  0  0  0
    3.4202    7.9009   20.3866 C   0  0  0  0  0  0  0  0  0  0  0  0
   13.5280   10.3522   19.3586 C   0  0  0  0  0  0  0  0  0  0  0  0
    9.6923    5.6468   22.7891 C   0  0  0  0  0  0  0  0  0  0  0  0
   11.7756   10.2554   20.8841 N   0  0  0  0  0  0  0  0  0  0  0  0
    8.9876   11.9370   19.8757 O   0  0  0  0  0  0  0  0  0  0  0  0
    6.0167    8.4478   21.1089 C   0  0  0  0  0  0  0  0  0  0  0  0
   11.0002   10.8890   20.0262 C   0  0  0  0  0  0  0  0  0  0  0  0
    2.1721    7.7393   20.0315 O   0  0  0  0  0  0  0  0  0  0  0  0
    9.1107   10.3880   21.3769 N   0  0  0  0  0  0  0  0  0  0  0  0
    3.9102    9.2008   20.3124 C   0  0  0  0  0  0  0  0  0  0  0  0
   12.7292   10.9960   18.4597 C   0  0  0  0  0  0  0  0  0  0  0  0
    9.3798    6.6793   23.6625 C   0  0  0  0  0  0  0  0  0  0  0  0
   14.7425   10.0739   19.0802 O   0  0  0  0  0  0  0  0  0  0  0  0
    5.1894    9.4673   20.7118 C   0  0  0  0  0  0  0  0  0  0  0  0
    7.3773    8.8224   21.4870 C   0  0  0  0  0  0  0  0  0  0  0  0
    8.4391    6.6439   21.0235 C   0  0  0  0  0  0  0  0  0  0  0  0
    9.6494   11.1353   20.4167 C   0  0  0  0  0  0  0  0  0  0  0  0
    8.1431    7.6829   21.9046 C   0  0  0  0  0  0  0  0  0  0  0  0
    7.7796   10.1314   21.5115 N   0  0  0  0  0  0  0  0  0  0  0  0
    9.2768    5.6183   21.4437 C   0  0  0  0  0  0  0  0  0  0  0  0
    8.6315    7.7322   23.1768 C   0  0  0  0  0  0  0  0  0  0  0  0
   13.0537    9.9821   20.5781 C   0  0  0  0  0  0  0  0  0  0  0  0
   10.3850    4.6575   23.2386 O   0  0  0  0  0  0  0  0  0  0  0  0
    4.2069    6.8450   20.7994 C   0  0  0  0  0  0  0  0  0  0  0  0
    3.0726   10.1043   19.8522 O   0  0  0  0  0  0  0  0  0  0  0  0
    5.5057    7.1196   21.1155 C   0  0  0  0  0  0  0  0  0  0  0  0
    7.0367   11.0229   21.9948 O   0  0  0  0  0  0  0  0  0  0  0  0
  1  8  4  0
  1 12  4  0
  2  9  1  0
  2 11  4  0
  2 25  4  0
  3 12  4  0
  3 14  1  0
  3 23  4  0
  4 13  4  0
  4 21  4  0
  4 24  1  0
  5  8  4  0
  5 23  4  0
  6 18  2  0
  7 15  4  0
  7 16  1  0
  7 27  4  0
  8 18  1  0
 10 18  1  0
 10 20  1  0
 11 15  4  0
 11 26  1  0
 13 22  4  0
 16 19  1  0
 16 20  2  0
 17 19  4  0
 17 21  4  0
 19 22  4  0
 20 28  1  0
 25 27  4  0
M  END
$$$$

 Created by Python create_sdf_string function

 28 30  0  0  0  0  0  0  0  0999 V2000
   11.4592   11.2893   18.7941 C   0  0  0  0  0  0  0  0  0  0  0  0
    3.4202    7.9009   20.3866 C   0  0  0  0  0  0  0  0  0  0  0  0
   13.5280   10.3522   19.3586 C   0  0  0  0  0  0  0  0  0  0  0  0
    9.6923    5.6468   22.7891 C   0  0  0  0  0  0  0  0  0  0  0  0
   11.7756   10.2554   20.8841 N   0  0  0  0  0  0  0  0  0  0  0  0
    8.9876   11.9370   19.8757 O   0  0  0  0  0  0  0  0  0  0  0  0
    6.0167    8.4478   21.1089 C   0  0  0  0  0  0  0  0  0  0  0  0
   11.0002   10.8890   20.0262 C   0  0  0  0  0  0  0  0  0  0  0  0
    2.1721    7.7393   20.0315 O   0  0  0  0  0  0  0  0  0  0  0  0
    9.1107   10.3880   21.3769 N   0  0  0  0  0  0  0  0  0  0  0  0
    3.9102    9.2008   20.3124 C   0  0  0  0  0  0  0  0  0  0  0  0
   12.7292   10.9960   18.4597 C   0  0  0  0  0  0  0  0  0  0  0  0
    9.3798    6.6793   23.6625 C   0  0  0  0  0  0  0  0  0  0  0  0
   14.7425   10.0739   19.0802 O   0  0  0  0  0  0  0  0  0  0  0  0
    5.1894    9.4673   20.7118 C   0  0  0  0  0  0  0  0  0  0  0  0
    7.3773    8.8224   21.4870 C   0  0  0  0  0  0  0  0  0  0  0  0
    8.4391    6.6439   21.0235 C   0  0  0  0  0  0  0  0  0  0  0  0
    9.6494   11.1353   20.4167 C   0  0  0  0  0  0  0  0  0  0  0  0
    8.1431    7.6829   21.9046 C   0  0  0  0  0  0  0  0  0  0  0  0
    7.7796   10.1314   21.5115 N   0  0  0  0  0  0  0  0  0  0  0  0
    9.2768    5.6183   21.4437 C   0  0  0  0  0  0  0  0  0  0  0  0
    8.6315    7.7322   23.1768 C   0  0  0  0  0  0  0  0  0  0  0  0
   13.0537    9.9821   20.5781 C   0  0  0  0  0  0  0  0  0  0  0  0
   10.3850    4.6575   23.2386 O   0  0  0  0  0  0  0  0  0  0  0  0
    4.2069    6.8450   20.7994 C   0  0  0  0  0  0  0  0  0  0  0  0
    3.0726   10.1043   19.8522 O   0  0  0  0  0  0  0  0  0  0  0  0
    5.5057    7.1196   21.1155 C   0  0  0  0  0  0  0  0  0  0  0  0
    7.0367   11.0229   21.9948 O   0  0  0  0  0  0  0  0  0  0  0  0
  1  8  4  0
  1 12  4  0
  2  9  1  0
  2 11  4  0
  2 25  4  0
  3 12  4  0
  3 14  1  0
  3 23  4  0
  4 13  4  0
  4 21  4  0
  4 24  1  0
  5  8  4  0
  5 23  4  0
  6 18  2  0
  7 15  4  0
  7 16  1  0
  7 27  4  0
  8 18  1  0
 10 18  1  0
 10 20  1  0
 11 15  4  0
 11 26  1  0
 13 22  4  0
 16 19  1  0
 16 20  2  0
 17 19  4  0
 17 21  4  0
 19 22  4  0
 20 28  1  0
 25 27  4  0
M  END
$$$$

 Created by Python create_sdf_string function

 28 30  0  0  0  0  0  0  0  0999 V2000
   11.4592   11.2893   18.7941 C   0  0  0  0  0  0  0  0  0  0  0  0
    3.4202    7.9009   20.3866 C   0  0  0  0  0  0  0  0  0  0  0  0
   13.5280   10.3522   19.3586 C   0  0  0  0  0  0  0  0  0  0  0  0
    9.6923    5.6468   22.7891 C   0  0  0  0  0  0  0  0  0  0  0  0
   11.7756   10.2554   20.8841 N   0  0  0  0  0  0  0  0  0  0  0  0
    8.9876   11.9370   19.8757 O   0  0  0  0  0  0  0  0  0  0  0  0
    6.0167    8.4478   21.1089 C   0  0  0  0  0  0  0  0  0  0  0  0
   11.0002   10.8890   20.0262 C   0  0  0  0  0  0  0  0  0  0  0  0
    2.1721    7.7393   20.0315 O   0  0  0  0  0  0  0  0  0  0  0  0
    9.1107   10.3880   21.3769 N   0  0  0  0  0  0  0  0  0  0  0  0
    3.9102    9.2008   20.3124 C   0  0  0  0  0  0  0  0  0  0  0  0
   12.7292   10.9960   18.4597 C   0  0  0  0  0  0  0  0  0  0  0  0
    9.3798    6.6793   23.6625 C   0  0  0  0  0  0  0  0  0  0  0  0
   14.7425   10.0739   19.0802 O   0  0  0  0  0  0  0  0  0  0  0  0
    5.1894    9.4673   20.7118 C   0  0  0  0  0  0  0  0  0  0  0  0
    7.3773    8.8224   21.4870 C   0  0  0  0  0  0  0  0  0  0  0  0
    8.4391    6.6439   21.0235 C   0  0  0  0  0  0  0  0  0  0  0  0
    9.6494   11.1353   20.4167 C   0  0  0  0  0  0  0  0  0  0  0  0
    8.1431    7.6829   21.9046 C   0  0  0  0  0  0  0  0  0  0  0  0
    7.7796   10.1314   21.5115 N   0  0  0  0  0  0  0  0  0  0  0  0
    9.2768    5.6183   21.4437 C   0  0  0  0  0  0  0  0  0  0  0  0
    8.6315    7.7322   23.1768 C   0  0  0  0  0  0  0  0  0  0  0  0
   13.0537    9.9821   20.5781 C   0  0  0  0  0  0  0  0  0  0  0  0
   10.3850    4.6575   23.2386 O   0  0  0  0  0  0  0  0  0  0  0  0
    4.2069    6.8450   20.7994 C   0  0  0  0  0  0  0  0  0  0  0  0
    3.0726   10.1043   19.8522 O   0  0  0  0  0  0  0  0  0  0  0  0
    5.5057    7.1196   21.1155 C   0  0  0  0  0  0  0  0  0  0  0  0
    7.0367   11.0229   21.9948 O   0  0  0  0  0  0  0  0  0  0  0  0
  1  8  4  0
  1 12  4  0
  2  9  1  0
  2 11  4  0
  2 25  4  0
  3 12  4  0
  3 14  1  0
  3 23  4  0
  4 13  4  0
  4 21  4  0
  4 24  1  0
  5  8  4  0
  5 23  4  0
  6 18  2  0
  7 15  4  0
  7 16  1  0
  7 27  4  0
  8 18  1  0
 10 18  1  0
 10 20  1  0
 11 15  4  0
 11 26  1  0
 13 22  4  0
 16 19  1  0
 16 20  2  0
 17 19  4  0
 17 21  4  0
 19 22  4  0
 20 28  1  0
 25 27  4  0
M  END
$$$$

 Created by Python create_sdf_string function

 28 30  0  0  0  0  0  0  0  0999 V2000
   11.4592   11.2893   18.7941 C   0  0  0  0  0  0  0  0  0  0  0  0
    3.4202    7.9009   20.3866 C   0  0  0  0  0  0  0  0  0  0  0  0
   13.5280   10.3522   19.3586 C   0  0  0  0  0  0  0  0  0  0  0  0
    9.6923    5.6468   22.7891 C   0  0  0  0  0  0  0  0  0  0  0  0
   11.7756   10.2554   20.8841 N   0  0  0  0  0  0  0  0  0  0  0  0
    8.9876   11.9370   19.8757 O   0  0  0  0  0  0  0  0  0  0  0  0
    6.0167    8.4478   21.1089 C   0  0  0  0  0  0  0  0  0  0  0  0
   11.0002   10.8890   20.0262 C   0  0  0  0  0  0  0  0  0  0  0  0
    2.1721    7.7393   20.0315 O   0  0  0  0  0  0  0  0  0  0  0  0
    9.1107   10.3880   21.3769 N   0  0  0  0  0  0  0  0  0  0  0  0
    3.9102    9.2008   20.3124 C   0  0  0  0  0  0  0  0  0  0  0  0
   12.7292   10.9960   18.4597 C   0  0  0  0  0  0  0  0  0  0  0  0
    9.3798    6.6793   23.6625 C   0  0  0  0  0  0  0  0  0  0  0  0
   14.7425   10.0739   19.0802 O   0  0  0  0  0  0  0  0  0  0  0  0
    5.1894    9.4673   20.7118 C   0  0  0  0  0  0  0  0  0  0  0  0
    7.3773    8.8224   21.4870 C   0  0  0  0  0  0  0  0  0  0  0  0
    8.4391    6.6439   21.0235 C   0  0  0  0  0  0  0  0  0  0  0  0
    9.6494   11.1353   20.4167 C   0  0  0  0  0  0  0  0  0  0  0  0
    8.1431    7.6829   21.9046 C   0  0  0  0  0  0  0  0  0  0  0  0
    7.7796   10.1314   21.5115 N   0  0  0  0  0  0  0  0  0  0  0  0
    9.2768    5.6183   21.4437 C   0  0  0  0  0  0  0  0  0  0  0  0
    8.6315    7.7322   23.1768 C   0  0  0  0  0  0  0  0  0  0  0  0
   13.0537    9.9821   20.5781 C   0  0  0  0  0  0  0  0  0  0  0  0
   10.3850    4.6575   23.2386 O   0  0  0  0  0  0  0  0  0  0  0  0
    4.2069    6.8450   20.7994 C   0  0  0  0  0  0  0  0  0  0  0  0
    3.0726   10.1043   19.8522 O   0  0  0  0  0  0  0  0  0  0  0  0
    5.5057    7.1196   21.1155 C   0  0  0  0  0  0  0  0  0  0  0  0
    7.0367   11.0229   21.9948 O   0  0  0  0  0  0  0  0  0  0  0  0
  1  8  4  0
  1 12  4  0
  2  9  1  0
  2 11  4  0
  2 25  4  0
  3 12  4  0
  3 14  1  0
  3 23  4  0
  4 13  4  0
  4 21  4  0
  4 24  1  0
  5  8  4  0
  5 23  4  0
  6 18  2  0
  7 15  4  0
  7 16  1  0
  7 27  4  0
  8 18  1  0
 10 18  1  0
 10 20  1  0
 11 15  4  0
 11 26  1  0
 13 22  4  0
 16 19  1  0
 16 20  2  0
 17 19  4  0
 17 21  4  0
 19 22  4  0
 20 28  1  0
 25 27  4  0
M  END
$$$$

 Created by Python create_sdf_string function

 28 30  0  0  0  0  0  0  0  0999 V2000
   11.4592   11.2893   18.7941 C   0  0  0  0  0  0  0  0  0  0  0  0
    3.4202    7.9009   20.3866 C   0  0  0  0  0  0  0  0  0  0  0  0
   13.5280   10.3522   19.3586 C   0  0  0  0  0  0  0  0  0  0  0  0
    9.6923    5.6468   22.7891 C   0  0  0  0  0  0  0  0  0  0  0  0
   11.7756   10.2554   20.8841 N   0  0  0  0  0  0  0  0  0  0  0  0
    8.9876   11.9370   19.8757 O   0  0  0  0  0  0  0  0  0  0  0  0
    6.0167    8.4478   21.1089 C   0  0  0  0  0  0  0  0  0  0  0  0
   11.0002   10.8890   20.0262 C   0  0  0  0  0  0  0  0  0  0  0  0
    2.1721    7.7393   20.0315 O   0  0  0  0  0  0  0  0  0  0  0  0
    9.1107   10.3880   21.3769 N   0  0  0  0  0  0  0  0  0  0  0  0
    3.9102    9.2008   20.3124 C   0  0  0  0  0  0  0  0  0  0  0  0
   12.7292   10.9960   18.4597 C   0  0  0  0  0  0  0  0  0  0  0  0
    9.3798    6.6793   23.6625 C   0  0  0  0  0  0  0  0  0  0  0  0
   14.7425   10.0739   19.0802 O   0  0  0  0  0  0  0  0  0  0  0  0
    5.1894    9.4673   20.7118 C   0  0  0  0  0  0  0  0  0  0  0  0
    7.3773    8.8224   21.4870 C   0  0  0  0  0  0  0  0  0  0  0  0
    8.4391    6.6439   21.0235 C   0  0  0  0  0  0  0  0  0  0  0  0
    9.6494   11.1353   20.4167 C   0  0  0  0  0  0  0  0  0  0  0  0
    8.1431    7.6829   21.9046 C   0  0  0  0  0  0  0  0  0  0  0  0
    7.7796   10.1314   21.5115 N   0  0  0  0  0  0  0  0  0  0  0  0
    9.2768    5.6183   21.4437 C   0  0  0  0  0  0  0  0  0  0  0  0
    8.6315    7.7322   23.1768 C   0  0  0  0  0  0  0  0  0  0  0  0
   13.0537    9.9821   20.5781 C   0  0  0  0  0  0  0  0  0  0  0  0
   10.3850    4.6575   23.2386 O   0  0  0  0  0  0  0  0  0  0  0  0
    4.2069    6.8450   20.7994 C   0  0  0  0  0  0  0  0  0  0  0  0
    3.0726   10.1043   19.8522 O   0  0  0  0  0  0  0  0  0  0  0  0
    5.5057    7.1196   21.1155 C   0  0  0  0  0  0  0  0  0  0  0  0
    7.0367   11.0229   21.9948 O   0  0  0  0  0  0  0  0  0  0  0  0
  1  8  4  0
  1 12  4  0
  2  9  1  0
  2 11  4  0
  2 25  4  0
  3 12  4  0
  3 14  1  0
  3 23  4  0
  4 13  4  0
  4 21  4  0
  4 24  1  0
  5  8  4  0
  5 23  4  0
  6 18  2  0
  7 15  4  0
  7 16  1  0
  7 27  4  0
  8 18  1  0
 10 18  1  0
 10 20  1  0
 11 15  4  0
 11 26  1  0
 13 22  4  0
 16 19  1  0
 16 20  2  0
 17 19  4  0
 17 21  4  0
 19 22  4  0
 20 28  1  0
 25 27  4  0
M  END
$$$$

 Created by Python create_sdf_string function

 28 30  0  0  0  0  0  0  0  0999 V2000
   11.4592   11.2893   18.7941 C   0  0  0  0  0  0  0  0  0  0  0  0
    3.4202    7.9009   20.3866 C   0  0  0  0  0  0  0  0  0  0  0  0
   13.5280   10.3522   19.3586 C   0  0  0  0  0  0  0  0  0  0  0  0
    9.6923    5.6468   22.7891 C   0  0  0  0  0  0  0  0  0  0  0  0
   11.7756   10.2554   20.8841 N   0  0  0  0  0  0  0  0  0  0  0  0
    8.9876   11.9370   19.8757 O   0  0  0  0  0  0  0  0  0  0  0  0
    6.0167    8.4478   21.1089 C   0  0  0  0  0  0  0  0  0  0  0  0
   11.0002   10.8890   20.0262 C   0  0  0  0  0  0  0  0  0  0  0  0
    2.1721    7.7393   20.0315 O   0  0  0  0  0  0  0  0  0  0  0  0
    9.1107   10.3880   21.3769 N   0  0  0  0  0  0  0  0  0  0  0  0
    3.9102    9.2008   20.3124 C   0  0  0  0  0  0  0  0  0  0  0  0
   12.7292   10.9960   18.4597 C   0  0  0  0  0  0  0  0  0  0  0  0
    9.3798    6.6793   23.6625 C   0  0  0  0  0  0  0  0  0  0  0  0
   14.7425   10.0739   19.0802 O   0  0  0  0  0  0  0  0  0  0  0  0
    5.1894    9.4673   20.7118 C   0  0  0  0  0  0  0  0  0  0  0  0
    7.3773    8.8224   21.4870 C   0  0  0  0  0  0  0  0  0  0  0  0
    8.4391    6.6439   21.0235 C   0  0  0  0  0  0  0  0  0  0  0  0
    9.6494   11.1353   20.4167 C   0  0  0  0  0  0  0  0  0  0  0  0
    8.1431    7.6829   21.9046 C   0  0  0  0  0  0  0  0  0  0  0  0
    7.7796   10.1314   21.5115 N   0  0  0  0  0  0  0  0  0  0  0  0
    9.2768    5.6183   21.4437 C   0  0  0  0  0  0  0  0  0  0  0  0
    8.6315    7.7322   23.1768 C   0  0  0  0  0  0  0  0  0  0  0  0
   13.0537    9.9821   20.5781 C   0  0  0  0  0  0  0  0  0  0  0  0
   10.3850    4.6575   23.2386 O   0  0  0  0  0  0  0  0  0  0  0  0
    4.2069    6.8450   20.7994 C   0  0  0  0  0  0  0  0  0  0  0  0
    3.0726   10.1043   19.8522 O   0  0  0  0  0  0  0  0  0  0  0  0
    5.5057    7.1196   21.1155 C   0  0  0  0  0  0  0  0  0  0  0  0
    7.0367   11.0229   21.9948 O   0  0  0  0  0  0  0  0  0  0  0  0
  1  8  4  0
  1 12  4  0
  2  9  1  0
  2 11  4  0
  2 25  4  0
  3 12  4  0
  3 14  1  0
  3 23  4  0
  4 13  4  0
  4 21  4  0
  4 24  1  0
  5  8  4  0
  5 23  4  0
  6 18  2  0
  7 15  4  0
  7 16  1  0
  7 27  4  0
  8 18  1  0
 10 18  1  0
 10 20  1  0
 11 15  4  0
 11 26  1  0
 13 22  4  0
 16 19  1  0
 16 20  2  0
 17 19  4  0
 17 21  4  0
 19 22  4  0
 20 28  1  0
 25 27  4  0
M  END
$$$$

 Created by Python create_sdf_string function

 28 30  0  0  0  0  0  0  0  0999 V2000
   11.4592   11.2893   18.7941 C   0  0  0  0  0  0  0  0  0  0  0  0
    3.4202    7.9009   20.3866 C   0  0  0  0  0  0  0  0  0  0  0  0
   13.5280   10.3522   19.3586 C   0  0  0  0  0  0  0  0  0  0  0  0
    9.6923    5.6468   22.7891 C   0  0  0  0  0  0  0  0  0  0  0  0
   11.7756   10.2554   20.8841 N   0  0  0  0  0  0  0  0  0  0  0  0
    8.9876   11.9370   19.8757 O   0  0  0  0  0  0  0  0  0  0  0  0
    6.0167    8.4478   21.1089 C   0  0  0  0  0  0  0  0  0  0  0  0
   11.0002   10.8890   20.0262 C   0  0  0  0  0  0  0  0  0  0  0  0
    2.1721    7.7393   20.0315 O   0  0  0  0  0  0  0  0  0  0  0  0
    9.1107   10.3880   21.3769 N   0  0  0  0  0  0  0  0  0  0  0  0
    3.9102    9.2008   20.3124 C   0  0  0  0  0  0  0  0  0  0  0  0
   12.7292   10.9960   18.4597 C   0  0  0  0  0  0  0  0  0  0  0  0
    9.3798    6.6793   23.6625 C   0  0  0  0  0  0  0  0  0  0  0  0
   14.7425   10.0739   19.0802 O   0  0  0  0  0  0  0  0  0  0  0  0
    5.1894    9.4673   20.7118 C   0  0  0  0  0  0  0  0  0  0  0  0
    7.3773    8.8224   21.4870 C   0  0  0  0  0  0  0  0  0  0  0  0
    8.4391    6.6439   21.0235 C   0  0  0  0  0  0  0  0  0  0  0  0
    9.6494   11.1353   20.4167 C   0  0  0  0  0  0  0  0  0  0  0  0
    8.1431    7.6829   21.9046 C   0  0  0  0  0  0  0  0  0  0  0  0
    7.7796   10.1314   21.5115 N   0  0  0  0  0  0  0  0  0  0  0  0
    9.2768    5.6183   21.4437 C   0  0  0  0  0  0  0  0  0  0  0  0
    8.6315    7.7322   23.1768 C   0  0  0  0  0  0  0  0  0  0  0  0
   13.0537    9.9821   20.5781 C   0  0  0  0  0  0  0  0  0  0  0  0
   10.3850    4.6575   23.2386 O   0  0  0  0  0  0  0  0  0  0  0  0
    4.2069    6.8450   20.7994 C   0  0  0  0  0  0  0  0  0  0  0  0
    3.0726   10.1043   19.8522 O   0  0  0  0  0  0  0  0  0  0  0  0
    5.5057    7.1196   21.1155 C   0  0  0  0  0  0  0  0  0  0  0  0
    7.0367   11.0229   21.9948 O   0  0  0  0  0  0  0  0  0  0  0  0
  1  8  4  0
  1 12  4  0
  2  9  1  0
  2 11  4  0
  2 25  4  0
  3 12  4  0
  3 14  1  0
  3 23  4  0
  4 13  4  0
  4 21  4  0
  4 24  1  0
  5  8  4  0
  5 23  4  0
  6 18  2  0
  7 15  4  0
  7 16  1  0
  7 27  4  0
  8 18  1  0
 10 18  1  0
 10 20  1  0
 11 15  4  0
 11 26  1  0
 13 22  4  0
 16 19  1  0
 16 20  2  0
 17 19  4  0
 17 21  4  0
 19 22  4  0
 20 28  1  0
 25 27  4  0
M  END
$$$$

 Created by Python create_sdf_string function

 28 30  0  0  0  0  0  0  0  0999 V2000
   11.4592   11.2893   18.7941 C   0  0  0  0  0  0  0  0  0  0  0  0
    3.4202    7.9009   20.3866 C   0  0  0  0  0  0  0  0  0  0  0  0
   13.5280   10.3522   19.3586 C   0  0  0  0  0  0  0  0  0  0  0  0
    9.6923    5.6468   22.7891 C   0  0  0  0  0  0  0  0  0  0  0  0
   11.7756   10.2554   20.8841 N   0  0  0  0  0  0  0  0  0  0  0  0
    8.9876   11.9370   19.8757 O   0  0  0  0  0  0  0  0  0  0  0  0
    6.0167    8.4478   21.1089 C   0  0  0  0  0  0  0  0  0  0  0  0
   11.0002   10.8890   20.0262 C   0  0  0  0  0  0  0  0  0  0  0  0
    2.1721    7.7393   20.0315 O   0  0  0  0  0  0  0  0  0  0  0  0
    9.1107   10.3880   21.3769 N   0  0  0  0  0  0  0  0  0  0  0  0
    3.9102    9.2008   20.3124 C   0  0  0  0  0  0  0  0  0  0  0  0
   12.7292   10.9960   18.4597 C   0  0  0  0  0  0  0  0  0  0  0  0
    9.3798    6.6793   23.6625 C   0  0  0  0  0  0  0  0  0  0  0  0
   14.7425   10.0739   19.0802 O   0  0  0  0  0  0  0  0  0  0  0  0
    5.1894    9.4673   20.7118 C   0  0  0  0  0  0  0  0  0  0  0  0
    7.3773    8.8224   21.4870 C   0  0  0  0  0  0  0  0  0  0  0  0
    8.4391    6.6439   21.0235 C   0  0  0  0  0  0  0  0  0  0  0  0
    9.6494   11.1353   20.4167 C   0  0  0  0  0  0  0  0  0  0  0  0
    8.1431    7.6829   21.9046 C   0  0  0  0  0  0  0  0  0  0  0  0
    7.7796   10.1314   21.5115 N   0  0  0  0  0  0  0  0  0  0  0  0
    9.2768    5.6183   21.4437 C   0  0  0  0  0  0  0  0  0  0  0  0
    8.6315    7.7322   23.1768 C   0  0  0  0  0  0  0  0  0  0  0  0
   13.0537    9.9821   20.5781 C   0  0  0  0  0  0  0  0  0  0  0  0
   10.3850    4.6575   23.2386 O   0  0  0  0  0  0  0  0  0  0  0  0
    4.2069    6.8450   20.7994 C   0  0  0  0  0  0  0  0  0  0  0  0
    3.0726   10.1043   19.8522 O   0  0  0  0  0  0  0  0  0  0  0  0
    5.5057    7.1196   21.1155 C   0  0  0  0  0  0  0  0  0  0  0  0
    7.0367   11.0229   21.9948 O   0  0  0  0  0  0  0  0  0  0  0  0
  1  8  4  0
  1 12  4  0
  2  9  1  0
  2 11  4  0
  2 25  4  0
  3 12  4  0
  3 14  1  0
  3 23  4  0
  4 13  4  0
  4 21  4  0
  4 24  1  0
  5  8  4  0
  5 23  4  0
  6 18  2  0
  7 15  4  0
  7 16  1  0
  7 27  4  0
  8 18  1  0
 10 18  1  0
 10 20  1  0
 11 15  4  0
 11 26  1  0
 13 22  4  0
 16 19  1  0
 16 20  2  0
 17 19  4  0
 17 21  4  0
 19 22  4  0
 20 28  1  0
 25 27  4  0
M  END
$$$$

 Created by Python create_sdf_string function

 28 30  0  0  0  0  0  0  0  0999 V2000
   11.4592   11.2893   18.7941 C   0  0  0  0  0  0  0  0  0  0  0  0
    3.4202    7.9009   20.3866 C   0  0  0  0  0  0  0  0  0  0  0  0
   13.5280   10.3522   19.3586 C   0  0  0  0  0  0  0  0  0  0  0  0
    9.6923    5.6468   22.7891 C   0  0  0  0  0  0  0  0  0  0  0  0
   11.7756   10.2554   20.8841 N   0  0  0  0  0  0  0  0  0  0  0  0
    8.9876   11.9370   19.8757 O   0  0  0  0  0  0  0  0  0  0  0  0
    6.0167    8.4478   21.1089 C   0  0  0  0  0  0  0  0  0  0  0  0
   11.0002   10.8890   20.0262 C   0  0  0  0  0  0  0  0  0  0  0  0
    2.1721    7.7393   20.0315 O   0  0  0  0  0  0  0  0  0  0  0  0
    9.1107   10.3880   21.3769 N   0  0  0  0  0  0  0  0  0  0  0  0
    3.9102    9.2008   20.3124 C   0  0  0  0  0  0  0  0  0  0  0  0
   12.7292   10.9960   18.4597 C   0  0  0  0  0  0  0  0  0  0  0  0
    9.3798    6.6793   23.6625 C   0  0  0  0  0  0  0  0  0  0  0  0
   14.7425   10.0739   19.0802 O   0  0  0  0  0  0  0  0  0  0  0  0
    5.1894    9.4673   20.7118 C   0  0  0  0  0  0  0  0  0  0  0  0
    7.3773    8.8224   21.4870 C   0  0  0  0  0  0  0  0  0  0  0  0
    8.4391    6.6439   21.0235 C   0  0  0  0  0  0  0  0  0  0  0  0
    9.6494   11.1353   20.4167 C   0  0  0  0  0  0  0  0  0  0  0  0
    8.1431    7.6829   21.9046 C   0  0  0  0  0  0  0  0  0  0  0  0
    7.7796   10.1314   21.5115 N   0  0  0  0  0  0  0  0  0  0  0  0
    9.2768    5.6183   21.4437 C   0  0  0  0  0  0  0  0  0  0  0  0
    8.6315    7.7322   23.1768 C   0  0  0  0  0  0  0  0  0  0  0  0
   13.0537    9.9821   20.5781 C   0  0  0  0  0  0  0  0  0  0  0  0
   10.3850    4.6575   23.2386 O   0  0  0  0  0  0  0  0  0  0  0  0
    4.2069    6.8450   20.7994 C   0  0  0  0  0  0  0  0  0  0  0  0
    3.0726   10.1043   19.8522 O   0  0  0  0  0  0  0  0  0  0  0  0
    5.5057    7.1196   21.1155 C   0  0  0  0  0  0  0  0  0  0  0  0
    7.0367   11.0229   21.9948 O   0  0  0  0  0  0  0  0  0  0  0  0
  1  8  4  0
  1 12  4  0
  2  9  1  0
  2 11  4  0
  2 25  4  0
  3 12  4  0
  3 14  1  0
  3 23  4  0
  4 13  4  0
  4 21  4  0
  4 24  1  0
  5  8  4  0
  5 23  4  0
  6 18  2  0
  7 15  4  0
  7 16  1  0
  7 27  4  0
  8 18  1  0
 10 18  1  0
 10 20  1  0
 11 15  4  0
 11 26  1  0
 13 22  4  0
 16 19  1  0
 16 20  2  0
 17 19  4  0
 17 21  4  0
 19 22  4  0
 20 28  1  0
 25 27  4  0
M  END
$$$$

 Created by Python create_sdf_string function

 28 30  0  0  0  0  0  0  0  0999 V2000
   11.4592   11.2893   18.7941 C   0  0  0  0  0  0  0  0  0  0  0  0
    3.4202    7.9009   20.3866 C   0  0  0  0  0  0  0  0  0  0  0  0
   13.5280   10.3522   19.3586 C   0  0  0  0  0  0  0  0  0  0  0  0
    9.6923    5.6468   22.7891 C   0  0  0  0  0  0  0  0  0  0  0  0
   11.7756   10.2554   20.8841 N   0  0  0  0  0  0  0  0  0  0  0  0
    8.9876   11.9370   19.8757 O   0  0  0  0  0  0  0  0  0  0  0  0
    6.0167    8.4478   21.1089 C   0  0  0  0  0  0  0  0  0  0  0  0
   11.0002   10.8890   20.0262 C   0  0  0  0  0  0  0  0  0  0  0  0
    2.1721    7.7393   20.0315 O   0  0  0  0  0  0  0  0  0  0  0  0
    9.1107   10.3880   21.3769 N   0  0  0  0  0  0  0  0  0  0  0  0
    3.9102    9.2008   20.3124 C   0  0  0  0  0  0  0  0  0  0  0  0
   12.7292   10.9960   18.4597 C   0  0  0  0  0  0  0  0  0  0  0  0
    9.3798    6.6793   23.6625 C   0  0  0  0  0  0  0  0  0  0  0  0
   14.7425   10.0739   19.0802 O   0  0  0  0  0  0  0  0  0  0  0  0
    5.1894    9.4673   20.7118 C   0  0  0  0  0  0  0  0  0  0  0  0
    7.3773    8.8224   21.4870 C   0  0  0  0  0  0  0  0  0  0  0  0
    8.4391    6.6439   21.0235 C   0  0  0  0  0  0  0  0  0  0  0  0
    9.6494   11.1353   20.4167 C   0  0  0  0  0  0  0  0  0  0  0  0
    8.1431    7.6829   21.9046 C   0  0  0  0  0  0  0  0  0  0  0  0
    7.7796   10.1314   21.5115 N   0  0  0  0  0  0  0  0  0  0  0  0
    9.2768    5.6183   21.4437 C   0  0  0  0  0  0  0  0  0  0  0  0
    8.6315    7.7322   23.1768 C   0  0  0  0  0  0  0  0  0  0  0  0
   13.0537    9.9821   20.5781 C   0  0  0  0  0  0  0  0  0  0  0  0
   10.3850    4.6575   23.2386 O   0  0  0  0  0  0  0  0  0  0  0  0
    4.2069    6.8450   20.7994 C   0  0  0  0  0  0  0  0  0  0  0  0
    3.0726   10.1043   19.8522 O   0  0  0  0  0  0  0  0  0  0  0  0
    5.5057    7.1196   21.1155 C   0  0  0  0  0  0  0  0  0  0  0  0
    7.0367   11.0229   21.9948 O   0  0  0  0  0  0  0  0  0  0  0  0
  1  8  4  0
  1 12  4  0
  2  9  1  0
  2 11  4  0
  2 25  4  0
  3 12  4  0
  3 14  1  0
  3 23  4  0
  4 13  4  0
  4 21  4  0
  4 24  1  0
  5  8  4  0
  5 23  4  0
  6 18  2  0
  7 15  4  0
  7 16  1  0
  7 27  4  0
  8 18  1  0
 10 18  1  0
 10 20  1  0
 11 15  4  0
 11 26  1  0
 13 22  4  0
 16 19  1  0
 16 20  2  0
 17 19  4  0
 17 21  4  0
 19 22  4  0
 20 28  1  0
 25 27  4  0
M  END
$$$$

 Created by Python create_sdf_string function

 28 30  0  0  0  0  0  0  0  0999 V2000
   11.4592   11.2893   18.7941 C   0  0  0  0  0  0  0  0  0  0  0  0
    3.4202    7.9009   20.3866 C   0  0  0  0  0  0  0  0  0  0  0  0
   13.5280   10.3522   19.3586 C   0  0  0  0  0  0  0  0  0  0  0  0
    9.6923    5.6468   22.7891 C   0  0  0  0  0  0  0  0  0  0  0  0
   11.7756   10.2554   20.8841 N   0  0  0  0  0  0  0  0  0  0  0  0
    8.9876   11.9370   19.8757 O   0  0  0  0  0  0  0  0  0  0  0  0
    6.0167    8.4478   21.1089 C   0  0  0  0  0  0  0  0  0  0  0  0
   11.0002   10.8890   20.0262 C   0  0  0  0  0  0  0  0  0  0  0  0
    2.1721    7.7393   20.0315 O   0  0  0  0  0  0  0  0  0  0  0  0
    9.1107   10.3880   21.3769 N   0  0  0  0  0  0  0  0  0  0  0  0
    3.9102    9.2008   20.3124 C   0  0  0  0  0  0  0  0  0  0  0  0
   12.7292   10.9960   18.4597 C   0  0  0  0  0  0  0  0  0  0  0  0
    9.3798    6.6793   23.6625 C   0  0  0  0  0  0  0  0  0  0  0  0
   14.7425   10.0739   19.0802 O   0  0  0  0  0  0  0  0  0  0  0  0
    5.1894    9.4673   20.7118 C   0  0  0  0  0  0  0  0  0  0  0  0
    7.3773    8.8224   21.4870 C   0  0  0  0  0  0  0  0  0  0  0  0
    8.4391    6.6439   21.0235 C   0  0  0  0  0  0  0  0  0  0  0  0
    9.6494   11.1353   20.4167 C   0  0  0  0  0  0  0  0  0  0  0  0
    8.1431    7.6829   21.9046 C   0  0  0  0  0  0  0  0  0  0  0  0
    7.7796   10.1314   21.5115 N   0  0  0  0  0  0  0  0  0  0  0  0
    9.2768    5.6183   21.4437 C   0  0  0  0  0  0  0  0  0  0  0  0
    8.6315    7.7322   23.1768 C   0  0  0  0  0  0  0  0  0  0  0  0
   13.0537    9.9821   20.5781 C   0  0  0  0  0  0  0  0  0  0  0  0
   10.3850    4.6575   23.2386 O   0  0  0  0  0  0  0  0  0  0  0  0
    4.2069    6.8450   20.7994 C   0  0  0  0  0  0  0  0  0  0  0  0
    3.0726   10.1043   19.8522 O   0  0  0  0  0  0  0  0  0  0  0  0
    5.5057    7.1196   21.1155 C   0  0  0  0  0  0  0  0  0  0  0  0
    7.0367   11.0229   21.9948 O   0  0  0  0  0  0  0  0  0  0  0  0
  1  8  4  0
  1 12  4  0
  2  9  1  0
  2 11  4  0
  2 25  4  0
  3 12  4  0
  3 14  1  0
  3 23  4  0
  4 13  4  0
  4 21  4  0
  4 24  1  0
  5  8  4  0
  5 23  4  0
  6 18  2  0
  7 15  4  0
  7 16  1  0
  7 27  4  0
  8 18  1  0
 10 18  1  0
 10 20  1  0
 11 15  4  0
 11 26  1  0
 13 22  4  0
 16 19  1  0
 16 20  2  0
 17 19  4  0
 17 21  4  0
 19 22  4  0
 20 28  1  0
 25 27  4  0
M  END
$$$$

 Created by Python create_sdf_string function

 28 30  0  0  0  0  0  0  0  0999 V2000
   11.4592   11.2893   18.7941 C   0  0  0  0  0  0  0  0  0  0  0  0
    3.4202    7.9009   20.3866 C   0  0  0  0  0  0  0  0  0  0  0  0
   13.5280   10.3522   19.3586 C   0  0  0  0  0  0  0  0  0  0  0  0
    9.6923    5.6468   22.7891 C   0  0  0  0  0  0  0  0  0  0  0  0
   11.7756   10.2554   20.8841 N   0  0  0  0  0  0  0  0  0  0  0  0
    8.9876   11.9370   19.8757 O   0  0  0  0  0  0  0  0  0  0  0  0
    6.0167    8.4478   21.1089 C   0  0  0  0  0  0  0  0  0  0  0  0
   11.0002   10.8890   20.0262 C   0  0  0  0  0  0  0  0  0  0  0  0
    2.1721    7.7393   20.0315 O   0  0  0  0  0  0  0  0  0  0  0  0
    9.1107   10.3880   21.3769 N   0  0  0  0  0  0  0  0  0  0  0  0
    3.9102    9.2008   20.3124 C   0  0  0  0  0  0  0  0  0  0  0  0
   12.7292   10.9960   18.4597 C   0  0  0  0  0  0  0  0  0  0  0  0
    9.3798    6.6793   23.6625 C   0  0  0  0  0  0  0  0  0  0  0  0
   14.7425   10.0739   19.0802 O   0  0  0  0  0  0  0  0  0  0  0  0
    5.1894    9.4673   20.7118 C   0  0  0  0  0  0  0  0  0  0  0  0
    7.3773    8.8224   21.4870 C   0  0  0  0  0  0  0  0  0  0  0  0
    8.4391    6.6439   21.0235 C   0  0  0  0  0  0  0  0  0  0  0  0
    9.6494   11.1353   20.4167 C   0  0  0  0  0  0  0  0  0  0  0  0
    8.1431    7.6829   21.9046 C   0  0  0  0  0  0  0  0  0  0  0  0
    7.7796   10.1314   21.5115 N   0  0  0  0  0  0  0  0  0  0  0  0
    9.2768    5.6183   21.4437 C   0  0  0  0  0  0  0  0  0  0  0  0
    8.6315    7.7322   23.1768 C   0  0  0  0  0  0  0  0  0  0  0  0
   13.0537    9.9821   20.5781 C   0  0  0  0  0  0  0  0  0  0  0  0
   10.3850    4.6575   23.2386 O   0  0  0  0  0  0  0  0  0  0  0  0
    4.2069    6.8450   20.7994 C   0  0  0  0  0  0  0  0  0  0  0  0
    3.0726   10.1043   19.8522 O   0  0  0  0  0  0  0  0  0  0  0  0
    5.5057    7.1196   21.1155 C   0  0  0  0  0  0  0  0  0  0  0  0
    7.0367   11.0229   21.9948 O   0  0  0  0  0  0  0  0  0  0  0  0
  1  8  4  0
  1 12  4  0
  2  9  1  0
  2 11  4  0
  2 25  4  0
  3 12  4  0
  3 14  1  0
  3 23  4  0
  4 13  4  0
  4 21  4  0
  4 24  1  0
  5  8  4  0
  5 23  4  0
  6 18  2  0
  7 15  4  0
  7 16  1  0
  7 27  4  0
  8 18  1  0
 10 18  1  0
 10 20  1  0
 11 15  4  0
 11 26  1  0
 13 22  4  0
 16 19  1  0
 16 20  2  0
 17 19  4  0
 17 21  4  0
 19 22  4  0
 20 28  1  0
 25 27  4  0
M  END
$$$$

 Created by Python create_sdf_string function

 28 30  0  0  0  0  0  0  0  0999 V2000
   11.4592   11.2893   18.7941 C   0  0  0  0  0  0  0  0  0  0  0  0
    3.4202    7.9009   20.3866 C   0  0  0  0  0  0  0  0  0  0  0  0
   13.5280   10.3522   19.3586 C   0  0  0  0  0  0  0  0  0  0  0  0
    9.6923    5.6468   22.7891 C   0  0  0  0  0  0  0  0  0  0  0  0
   11.7756   10.2554   20.8841 N   0  0  0  0  0  0  0  0  0  0  0  0
    8.9876   11.9370   19.8757 O   0  0  0  0  0  0  0  0  0  0  0  0
    6.0167    8.4478   21.1089 C   0  0  0  0  0  0  0  0  0  0  0  0
   11.0002   10.8890   20.0262 C   0  0  0  0  0  0  0  0  0  0  0  0
    2.1721    7.7393   20.0315 O   0  0  0  0  0  0  0  0  0  0  0  0
    9.1107   10.3880   21.3769 N   0  0  0  0  0  0  0  0  0  0  0  0
    3.9102    9.2008   20.3124 C   0  0  0  0  0  0  0  0  0  0  0  0
   12.7292   10.9960   18.4597 C   0  0  0  0  0  0  0  0  0  0  0  0
    9.3798    6.6793   23.6625 C   0  0  0  0  0  0  0  0  0  0  0  0
   14.7425   10.0739   19.0802 O   0  0  0  0  0  0  0  0  0  0  0  0
    5.1894    9.4673   20.7118 C   0  0  0  0  0  0  0  0  0  0  0  0
    7.3773    8.8224   21.4870 C   0  0  0  0  0  0  0  0  0  0  0  0
    8.4391    6.6439   21.0235 C   0  0  0  0  0  0  0  0  0  0  0  0
    9.6494   11.1353   20.4167 C   0  0  0  0  0  0  0  0  0  0  0  0
    8.1431    7.6829   21.9046 C   0  0  0  0  0  0  0  0  0  0  0  0
    7.7796   10.1314   21.5115 N   0  0  0  0  0  0  0  0  0  0  0  0
    9.2768    5.6183   21.4437 C   0  0  0  0  0  0  0  0  0  0  0  0
    8.6315    7.7322   23.1768 C   0  0  0  0  0  0  0  0  0  0  0  0
   13.0537    9.9821   20.5781 C   0  0  0  0  0  0  0  0  0  0  0  0
   10.3850    4.6575   23.2386 O   0  0  0  0  0  0  0  0  0  0  0  0
    4.2069    6.8450   20.7994 C   0  0  0  0  0  0  0  0  0  0  0  0
    3.0726   10.1043   19.8522 O   0  0  0  0  0  0  0  0  0  0  0  0
    5.5057    7.1196   21.1155 C   0  0  0  0  0  0  0  0  0  0  0  0
    7.0367   11.0229   21.9948 O   0  0  0  0  0  0  0  0  0  0  0  0
  1  8  4  0
  1 12  4  0
  2  9  1  0
  2 11  4  0
  2 25  4  0
  3 12  4  0
  3 14  1  0
  3 23  4  0
  4 13  4  0
  4 21  4  0
  4 24  1  0
  5  8  4  0
  5 23  4  0
  6 18  2  0
  7 15  4  0
  7 16  1  0
  7 27  4  0
  8 18  1  0
 10 18  1  0
 10 20  1  0
 11 15  4  0
 11 26  1  0
 13 22  4  0
 16 19  1  0
 16 20  2  0
 17 19  4  0
 17 21  4  0
 19 22  4  0
 20 28  1  0
 25 27  4  0
M  END
$$$$

 Created by Python create_sdf_string function

 28 30  0  0  0  0  0  0  0  0999 V2000
   11.4592   11.2893   18.7941 C   0  0  0  0  0  0  0  0  0  0  0  0
    3.4202    7.9009   20.3866 C   0  0  0  0  0  0  0  0  0  0  0  0
   13.5280   10.3522   19.3586 C   0  0  0  0  0  0  0  0  0  0  0  0
    9.6923    5.6468   22.7891 C   0  0  0  0  0  0  0  0  0  0  0  0
   11.7756   10.2554   20.8841 N   0  0  0  0  0  0  0  0  0  0  0  0
    8.9876   11.9370   19.8757 O   0  0  0  0  0  0  0  0  0  0  0  0
    6.0167    8.4478   21.1089 C   0  0  0  0  0  0  0  0  0  0  0  0
   11.0002   10.8890   20.0262 C   0  0  0  0  0  0  0  0  0  0  0  0
    2.1721    7.7393   20.0315 O   0  0  0  0  0  0  0  0  0  0  0  0
    9.1107   10.3880   21.3769 N   0  0  0  0  0  0  0  0  0  0  0  0
    3.9102    9.2008   20.3124 C   0  0  0  0  0  0  0  0  0  0  0  0
   12.7292   10.9960   18.4597 C   0  0  0  0  0  0  0  0  0  0  0  0
    9.3798    6.6793   23.6625 C   0  0  0  0  0  0  0  0  0  0  0  0
   14.7425   10.0739   19.0802 O   0  0  0  0  0  0  0  0  0  0  0  0
    5.1894    9.4673   20.7118 C   0  0  0  0  0  0  0  0  0  0  0  0
    7.3773    8.8224   21.4870 C   0  0  0  0  0  0  0  0  0  0  0  0
    8.4391    6.6439   21.0235 C   0  0  0  0  0  0  0  0  0  0  0  0
    9.6494   11.1353   20.4167 C   0  0  0  0  0  0  0  0  0  0  0  0
    8.1431    7.6829   21.9046 C   0  0  0  0  0  0  0  0  0  0  0  0
    7.7796   10.1314   21.5115 N   0  0  0  0  0  0  0  0  0  0  0  0
    9.2768    5.6183   21.4437 C   0  0  0  0  0  0  0  0  0  0  0  0
    8.6315    7.7322   23.1768 C   0  0  0  0  0  0  0  0  0  0  0  0
   13.0537    9.9821   20.5781 C   0  0  0  0  0  0  0  0  0  0  0  0
   10.3850    4.6575   23.2386 O   0  0  0  0  0  0  0  0  0  0  0  0
    4.2069    6.8450   20.7994 C   0  0  0  0  0  0  0  0  0  0  0  0
    3.0726   10.1043   19.8522 O   0  0  0  0  0  0  0  0  0  0  0  0
    5.5057    7.1196   21.1155 C   0  0  0  0  0  0  0  0  0  0  0  0
    7.0367   11.0229   21.9948 O   0  0  0  0  0  0  0  0  0  0  0  0
  1  8  4  0
  1 12  4  0
  2  9  1  0
  2 11  4  0
  2 25  4  0
  3 12  4  0
  3 14  1  0
  3 23  4  0
  4 13  4  0
  4 21  4  0
  4 24  1  0
  5  8  4  0
  5 23  4  0
  6 18  2  0
  7 15  4  0
  7 16  1  0
  7 27  4  0
  8 18  1  0
 10 18  1  0
 10 20  1  0
 11 15  4  0
 11 26  1  0
 13 22  4  0
 16 19  1  0
 16 20  2  0
 17 19  4  0
 17 21  4  0
 19 22  4  0
 20 28  1  0
 25 27  4  0
M  END
$$$$

 Created by Python create_sdf_string function

 28 30  0  0  0  0  0  0  0  0999 V2000
   11.4592   11.2893   18.7941 C   0  0  0  0  0  0  0  0  0  0  0  0
    3.4202    7.9009   20.3866 C   0  0  0  0  0  0  0  0  0  0  0  0
   13.5280   10.3522   19.3586 C   0  0  0  0  0  0  0  0  0  0  0  0
    9.6923    5.6468   22.7891 C   0  0  0  0  0  0  0  0  0  0  0  0
   11.7756   10.2554   20.8841 N   0  0  0  0  0  0  0  0  0  0  0  0
    8.9876   11.9370   19.8757 O   0  0  0  0  0  0  0  0  0  0  0  0
    6.0167    8.4478   21.1089 C   0  0  0  0  0  0  0  0  0  0  0  0
   11.0002   10.8890   20.0262 C   0  0  0  0  0  0  0  0  0  0  0  0
    2.1721    7.7393   20.0315 O   0  0  0  0  0  0  0  0  0  0  0  0
    9.1107   10.3880   21.3769 N   0  0  0  0  0  0  0  0  0  0  0  0
    3.9102    9.2008   20.3124 C   0  0  0  0  0  0  0  0  0  0  0  0
   12.7292   10.9960   18.4597 C   0  0  0  0  0  0  0  0  0  0  0  0
    9.3798    6.6793   23.6625 C   0  0  0  0  0  0  0  0  0  0  0  0
   14.7425   10.0739   19.0802 O   0  0  0  0  0  0  0  0  0  0  0  0
    5.1894    9.4673   20.7118 C   0  0  0  0  0  0  0  0  0  0  0  0
    7.3773    8.8224   21.4870 C   0  0  0  0  0  0  0  0  0  0  0  0
    8.4391    6.6439   21.0235 C   0  0  0  0  0  0  0  0  0  0  0  0
    9.6494   11.1353   20.4167 C   0  0  0  0  0  0  0  0  0  0  0  0
    8.1431    7.6829   21.9046 C   0  0  0  0  0  0  0  0  0  0  0  0
    7.7796   10.1314   21.5115 N   0  0  0  0  0  0  0  0  0  0  0  0
    9.2768    5.6183   21.4437 C   0  0  0  0  0  0  0  0  0  0  0  0
    8.6315    7.7322   23.1768 C   0  0  0  0  0  0  0  0  0  0  0  0
   13.0537    9.9821   20.5781 C   0  0  0  0  0  0  0  0  0  0  0  0
   10.3850    4.6575   23.2386 O   0  0  0  0  0  0  0  0  0  0  0  0
    4.2069    6.8450   20.7994 C   0  0  0  0  0  0  0  0  0  0  0  0
    3.0726   10.1043   19.8522 O   0  0  0  0  0  0  0  0  0  0  0  0
    5.5057    7.1196   21.1155 C   0  0  0  0  0  0  0  0  0  0  0  0
    7.0367   11.0229   21.9948 O   0  0  0  0  0  0  0  0  0  0  0  0
  1  8  4  0
  1 12  4  0
  2  9  1  0
  2 11  4  0
  2 25  4  0
  3 12  4  0
  3 14  1  0
  3 23  4  0
  4 13  4  0
  4 21  4  0
  4 24  1  0
  5  8  4  0
  5 23  4  0
  6 18  2  0
  7 15  4  0
  7 16  1  0
  7 27  4  0
  8 18  1  0
 10 18  1  0
 10 20  1  0
 11 15  4  0
 11 26  1  0
 13 22  4  0
 16 19  1  0
 16 20  2  0
 17 19  4  0
 17 21  4  0
 19 22  4  0
 20 28  1  0
 25 27  4  0
M  END
$$$$

 Created by Python create_sdf_string function

 28 30  0  0  0  0  0  0  0  0999 V2000
   11.4592   11.2893   18.7941 C   0  0  0  0  0  0  0  0  0  0  0  0
    3.4202    7.9009   20.3866 C   0  0  0  0  0  0  0  0  0  0  0  0
   13.5280   10.3522   19.3586 C   0  0  0  0  0  0  0  0  0  0  0  0
    9.6923    5.6468   22.7891 C   0  0  0  0  0  0  0  0  0  0  0  0
   11.7756   10.2554   20.8841 N   0  0  0  0  0  0  0  0  0  0  0  0
    8.9876   11.9370   19.8757 O   0  0  0  0  0  0  0  0  0  0  0  0
    6.0167    8.4478   21.1089 C   0  0  0  0  0  0  0  0  0  0  0  0
   11.0002   10.8890   20.0262 C   0  0  0  0  0  0  0  0  0  0  0  0
    2.1721    7.7393   20.0315 O   0  0  0  0  0  0  0  0  0  0  0  0
    9.1107   10.3880   21.3769 N   0  0  0  0  0  0  0  0  0  0  0  0
    3.9102    9.2008   20.3124 C   0  0  0  0  0  0  0  0  0  0  0  0
   12.7292   10.9960   18.4597 C   0  0  0  0  0  0  0  0  0  0  0  0
    9.3798    6.6793   23.6625 C   0  0  0  0  0  0  0  0  0  0  0  0
   14.7425   10.0739   19.0802 O   0  0  0  0  0  0  0  0  0  0  0  0
    5.1894    9.4673   20.7118 C   0  0  0  0  0  0  0  0  0  0  0  0
    7.3773    8.8224   21.4870 C   0  0  0  0  0  0  0  0  0  0  0  0
    8.4391    6.6439   21.0235 C   0  0  0  0  0  0  0  0  0  0  0  0
    9.6494   11.1353   20.4167 C   0  0  0  0  0  0  0  0  0  0  0  0
    8.1431    7.6829   21.9046 C   0  0  0  0  0  0  0  0  0  0  0  0
    7.7796   10.1314   21.5115 N   0  0  0  0  0  0  0  0  0  0  0  0
    9.2768    5.6183   21.4437 C   0  0  0  0  0  0  0  0  0  0  0  0
    8.6315    7.7322   23.1768 C   0  0  0  0  0  0  0  0  0  0  0  0
   13.0537    9.9821   20.5781 C   0  0  0  0  0  0  0  0  0  0  0  0
   10.3850    4.6575   23.2386 O   0  0  0  0  0  0  0  0  0  0  0  0
    4.2069    6.8450   20.7994 C   0  0  0  0  0  0  0  0  0  0  0  0
    3.0726   10.1043   19.8522 O   0  0  0  0  0  0  0  0  0  0  0  0
    5.5057    7.1196   21.1155 C   0  0  0  0  0  0  0  0  0  0  0  0
    7.0367   11.0229   21.9948 O   0  0  0  0  0  0  0  0  0  0  0  0
  1  8  4  0
  1 12  4  0
  2  9  1  0
  2 11  4  0
  2 25  4  0
  3 12  4  0
  3 14  1  0
  3 23  4  0
  4 13  4  0
  4 21  4  0
  4 24  1  0
  5  8  4  0
  5 23  4  0
  6 18  2  0
  7 15  4  0
  7 16  1  0
  7 27  4  0
  8 18  1  0
 10 18  1  0
 10 20  1  0
 11 15  4  0
 11 26  1  0
 13 22  4  0
 16 19  1  0
 16 20  2  0
 17 19  4  0
 17 21  4  0
 19 22  4  0
 20 28  1  0
 25 27  4  0
M  END
$$$$

 Created by Python create_sdf_string function

 28 30  0  0  0  0  0  0  0  0999 V2000
   11.4592   11.2893   18.7941 C   0  0  0  0  0  0  0  0  0  0  0  0
    3.4202    7.9009   20.3866 C   0  0  0  0  0  0  0  0  0  0  0  0
   13.5280   10.3522   19.3586 C   0  0  0  0  0  0  0  0  0  0  0  0
    9.6923    5.6468   22.7891 C   0  0  0  0  0  0  0  0  0  0  0  0
   11.7756   10.2554   20.8841 N   0  0  0  0  0  0  0  0  0  0  0  0
    8.9876   11.9370   19.8757 O   0  0  0  0  0  0  0  0  0  0  0  0
    6.0167    8.4478   21.1089 C   0  0  0  0  0  0  0  0  0  0  0  0
   11.0002   10.8890   20.0262 C   0  0  0  0  0  0  0  0  0  0  0  0
    2.1721    7.7393   20.0315 O   0  0  0  0  0  0  0  0  0  0  0  0
    9.1107   10.3880   21.3769 N   0  0  0  0  0  0  0  0  0  0  0  0
    3.9102    9.2008   20.3124 C   0  0  0  0  0  0  0  0  0  0  0  0
   12.7292   10.9960   18.4597 C   0  0  0  0  0  0  0  0  0  0  0  0
    9.3798    6.6793   23.6625 C   0  0  0  0  0  0  0  0  0  0  0  0
   14.7425   10.0739   19.0802 O   0  0  0  0  0  0  0  0  0  0  0  0
    5.1894    9.4673   20.7118 C   0  0  0  0  0  0  0  0  0  0  0  0
    7.3773    8.8224   21.4870 C   0  0  0  0  0  0  0  0  0  0  0  0
    8.4391    6.6439   21.0235 C   0  0  0  0  0  0  0  0  0  0  0  0
    9.6494   11.1353   20.4167 C   0  0  0  0  0  0  0  0  0  0  0  0
    8.1431    7.6829   21.9046 C   0  0  0  0  0  0  0  0  0  0  0  0
    7.7796   10.1314   21.5115 N   0  0  0  0  0  0  0  0  0  0  0  0
    9.2768    5.6183   21.4437 C   0  0  0  0  0  0  0  0  0  0  0  0
    8.6315    7.7322   23.1768 C   0  0  0  0  0  0  0  0  0  0  0  0
   13.0537    9.9821   20.5781 C   0  0  0  0  0  0  0  0  0  0  0  0
   10.3850    4.6575   23.2386 O   0  0  0  0  0  0  0  0  0  0  0  0
    4.2069    6.8450   20.7994 C   0  0  0  0  0  0  0  0  0  0  0  0
    3.0726   10.1043   19.8522 O   0  0  0  0  0  0  0  0  0  0  0  0
    5.5057    7.1196   21.1155 C   0  0  0  0  0  0  0  0  0  0  0  0
    7.0367   11.0229   21.9948 O   0  0  0  0  0  0  0  0  0  0  0  0
  1  8  4  0
  1 12  4  0
  2  9  1  0
  2 11  4  0
  2 25  4  0
  3 12  4  0
  3 14  1  0
  3 23  4  0
  4 13  4  0
  4 21  4  0
  4 24  1  0
  5  8  4  0
  5 23  4  0
  6 18  2  0
  7 15  4  0
  7 16  1  0
  7 27  4  0
  8 18  1  0
 10 18  1  0
 10 20  1  0
 11 15  4  0
 11 26  1  0
 13 22  4  0
 16 19  1  0
 16 20  2  0
 17 19  4  0
 17 21  4  0
 19 22  4  0
 20 28  1  0
 25 27  4  0
M  END
$$$$

 Created by Python create_sdf_string function

 28 30  0  0  0  0  0  0  0  0999 V2000
   11.4592   11.2893   18.7941 C   0  0  0  0  0  0  0  0  0  0  0  0
    3.4202    7.9009   20.3866 C   0  0  0  0  0  0  0  0  0  0  0  0
   13.5280   10.3522   19.3586 C   0  0  0  0  0  0  0  0  0  0  0  0
    9.6923    5.6468   22.7891 C   0  0  0  0  0  0  0  0  0  0  0  0
   11.7756   10.2554   20.8841 N   0  0  0  0  0  0  0  0  0  0  0  0
    8.9876   11.9370   19.8757 O   0  0  0  0  0  0  0  0  0  0  0  0
    6.0167    8.4478   21.1089 C   0  0  0  0  0  0  0  0  0  0  0  0
   11.0002   10.8890   20.0262 C   0  0  0  0  0  0  0  0  0  0  0  0
    2.1721    7.7393   20.0315 O   0  0  0  0  0  0  0  0  0  0  0  0
    9.1107   10.3880   21.3769 N   0  0  0  0  0  0  0  0  0  0  0  0
    3.9102    9.2008   20.3124 C   0  0  0  0  0  0  0  0  0  0  0  0
   12.7292   10.9960   18.4597 C   0  0  0  0  0  0  0  0  0  0  0  0
    9.3798    6.6793   23.6625 C   0  0  0  0  0  0  0  0  0  0  0  0
   14.7425   10.0739   19.0802 O   0  0  0  0  0  0  0  0  0  0  0  0
    5.1894    9.4673   20.7118 C   0  0  0  0  0  0  0  0  0  0  0  0
    7.3773    8.8224   21.4870 C   0  0  0  0  0  0  0  0  0  0  0  0
    8.4391    6.6439   21.0235 C   0  0  0  0  0  0  0  0  0  0  0  0
    9.6494   11.1353   20.4167 C   0  0  0  0  0  0  0  0  0  0  0  0
    8.1431    7.6829   21.9046 C   0  0  0  0  0  0  0  0  0  0  0  0
    7.7796   10.1314   21.5115 N   0  0  0  0  0  0  0  0  0  0  0  0
    9.2768    5.6183   21.4437 C   0  0  0  0  0  0  0  0  0  0  0  0
    8.6315    7.7322   23.1768 C   0  0  0  0  0  0  0  0  0  0  0  0
   13.0537    9.9821   20.5781 C   0  0  0  0  0  0  0  0  0  0  0  0
   10.3850    4.6575   23.2386 O   0  0  0  0  0  0  0  0  0  0  0  0
    4.2069    6.8450   20.7994 C   0  0  0  0  0  0  0  0  0  0  0  0
    3.0726   10.1043   19.8522 O   0  0  0  0  0  0  0  0  0  0  0  0
    5.5057    7.1196   21.1155 C   0  0  0  0  0  0  0  0  0  0  0  0
    7.0367   11.0229   21.9948 O   0  0  0  0  0  0  0  0  0  0  0  0
  1  8  4  0
  1 12  4  0
  2  9  1  0
  2 11  4  0
  2 25  4  0
  3 12  4  0
  3 14  1  0
  3 23  4  0
  4 13  4  0
  4 21  4  0
  4 24  1  0
  5  8  4  0
  5 23  4  0
  6 18  2  0
  7 15  4  0
  7 16  1  0
  7 27  4  0
  8 18  1  0
 10 18  1  0
 10 20  1  0
 11 15  4  0
 11 26  1  0
 13 22  4  0
 16 19  1  0
 16 20  2  0
 17 19  4  0
 17 21  4  0
 19 22  4  0
 20 28  1  0
 25 27  4  0
M  END
$$$$

 Created by Python create_sdf_string function

 28 30  0  0  0  0  0  0  0  0999 V2000
   11.4592   11.2893   18.7941 C   0  0  0  0  0  0  0  0  0  0  0  0
    3.4202    7.9009   20.3866 C   0  0  0  0  0  0  0  0  0  0  0  0
   13.5280   10.3522   19.3586 C   0  0  0  0  0  0  0  0  0  0  0  0
    9.6923    5.6468   22.7891 C   0  0  0  0  0  0  0  0  0  0  0  0
   11.7756   10.2554   20.8841 N   0  0  0  0  0  0  0  0  0  0  0  0
    8.9876   11.9370   19.8757 O   0  0  0  0  0  0  0  0  0  0  0  0
    6.0167    8.4478   21.1089 C   0  0  0  0  0  0  0  0  0  0  0  0
   11.0002   10.8890   20.0262 C   0  0  0  0  0  0  0  0  0  0  0  0
    2.1721    7.7393   20.0315 O   0  0  0  0  0  0  0  0  0  0  0  0
    9.1107   10.3880   21.3769 N   0  0  0  0  0  0  0  0  0  0  0  0
    3.9102    9.2008   20.3124 C   0  0  0  0  0  0  0  0  0  0  0  0
   12.7292   10.9960   18.4597 C   0  0  0  0  0  0  0  0  0  0  0  0
    9.3798    6.6793   23.6625 C   0  0  0  0  0  0  0  0  0  0  0  0
   14.7425   10.0739   19.0802 O   0  0  0  0  0  0  0  0  0  0  0  0
    5.1894    9.4673   20.7118 C   0  0  0  0  0  0  0  0  0  0  0  0
    7.3773    8.8224   21.4870 C   0  0  0  0  0  0  0  0  0  0  0  0
    8.4391    6.6439   21.0235 C   0  0  0  0  0  0  0  0  0  0  0  0
    9.6494   11.1353   20.4167 C   0  0  0  0  0  0  0  0  0  0  0  0
    8.1431    7.6829   21.9046 C   0  0  0  0  0  0  0  0  0  0  0  0
    7.7796   10.1314   21.5115 N   0  0  0  0  0  0  0  0  0  0  0  0
    9.2768    5.6183   21.4437 C   0  0  0  0  0  0  0  0  0  0  0  0
    8.6315    7.7322   23.1768 C   0  0  0  0  0  0  0  0  0  0  0  0
   13.0537    9.9821   20.5781 C   0  0  0  0  0  0  0  0  0  0  0  0
   10.3850    4.6575   23.2386 O   0  0  0  0  0  0  0  0  0  0  0  0
    4.2069    6.8450   20.7994 C   0  0  0  0  0  0  0  0  0  0  0  0
    3.0726   10.1043   19.8522 O   0  0  0  0  0  0  0  0  0  0  0  0
    5.5057    7.1196   21.1155 C   0  0  0  0  0  0  0  0  0  0  0  0
    7.0367   11.0229   21.9948 O   0  0  0  0  0  0  0  0  0  0  0  0
  1  8  4  0
  1 12  4  0
  2  9  1  0
  2 11  4  0
  2 25  4  0
  3 12  4  0
  3 14  1  0
  3 23  4  0
  4 13  4  0
  4 21  4  0
  4 24  1  0
  5  8  4  0
  5 23  4  0
  6 18  2  0
  7 15  4  0
  7 16  1  0
  7 27  4  0
  8 18  1  0
 10 18  1  0
 10 20  1  0
 11 15  4  0
 11 26  1  0
 13 22  4  0
 16 19  1  0
 16 20  2  0
 17 19  4  0
 17 21  4  0
 19 22  4  0
 20 28  1  0
 25 27  4  0
M  END
$$$$

 Created by Python create_sdf_string function

 28 30  0  0  0  0  0  0  0  0999 V2000
   11.4592   11.2893   18.7941 C   0  0  0  0  0  0  0  0  0  0  0  0
    3.4202    7.9009   20.3866 C   0  0  0  0  0  0  0  0  0  0  0  0
   13.5280   10.3522   19.3586 C   0  0  0  0  0  0  0  0  0  0  0  0
    9.6923    5.6468   22.7891 C   0  0  0  0  0  0  0  0  0  0  0  0
   11.7756   10.2554   20.8841 N   0  0  0  0  0  0  0  0  0  0  0  0
    8.9876   11.9370   19.8757 O   0  0  0  0  0  0  0  0  0  0  0  0
    6.0167    8.4478   21.1089 C   0  0  0  0  0  0  0  0  0  0  0  0
   11.0002   10.8890   20.0262 C   0  0  0  0  0  0  0  0  0  0  0  0
    2.1721    7.7393   20.0315 O   0  0  0  0  0  0  0  0  0  0  0  0
    9.1107   10.3880   21.3769 N   0  0  0  0  0  0  0  0  0  0  0  0
    3.9102    9.2008   20.3124 C   0  0  0  0  0  0  0  0  0  0  0  0
   12.7292   10.9960   18.4597 C   0  0  0  0  0  0  0  0  0  0  0  0
    9.3798    6.6793   23.6625 C   0  0  0  0  0  0  0  0  0  0  0  0
   14.7425   10.0739   19.0802 O   0  0  0  0  0  0  0  0  0  0  0  0
    5.1894    9.4673   20.7118 C   0  0  0  0  0  0  0  0  0  0  0  0
    7.3773    8.8224   21.4870 C   0  0  0  0  0  0  0  0  0  0  0  0
    8.4391    6.6439   21.0235 C   0  0  0  0  0  0  0  0  0  0  0  0
    9.6494   11.1353   20.4167 C   0  0  0  0  0  0  0  0  0  0  0  0
    8.1431    7.6829   21.9046 C   0  0  0  0  0  0  0  0  0  0  0  0
    7.7796   10.1314   21.5115 N   0  0  0  0  0  0  0  0  0  0  0  0
    9.2768    5.6183   21.4437 C   0  0  0  0  0  0  0  0  0  0  0  0
    8.6315    7.7322   23.1768 C   0  0  0  0  0  0  0  0  0  0  0  0
   13.0537    9.9821   20.5781 C   0  0  0  0  0  0  0  0  0  0  0  0
   10.3850    4.6575   23.2386 O   0  0  0  0  0  0  0  0  0  0  0  0
    4.2069    6.8450   20.7994 C   0  0  0  0  0  0  0  0  0  0  0  0
    3.0726   10.1043   19.8522 O   0  0  0  0  0  0  0  0  0  0  0  0
    5.5057    7.1196   21.1155 C   0  0  0  0  0  0  0  0  0  0  0  0
    7.0367   11.0229   21.9948 O   0  0  0  0  0  0  0  0  0  0  0  0
  1  8  4  0
  1 12  4  0
  2  9  1  0
  2 11  4  0
  2 25  4  0
  3 12  4  0
  3 14  1  0
  3 23  4  0
  4 13  4  0
  4 21  4  0
  4 24  1  0
  5  8  4  0
  5 23  4  0
  6 18  2  0
  7 15  4  0
  7 16  1  0
  7 27  4  0
  8 18  1  0
 10 18  1  0
 10 20  1  0
 11 15  4  0
 11 26  1  0
 13 22  4  0
 16 19  1  0
 16 20  2  0
 17 19  4  0
 17 21  4  0
 19 22  4  0
 20 28  1  0
 25 27  4  0
M  END
$$$$

 Created by Python create_sdf_string function

 28 30  0  0  0  0  0  0  0  0999 V2000
   11.4592   11.2893   18.7941 C   0  0  0  0  0  0  0  0  0  0  0  0
    3.4202    7.9009   20.3866 C   0  0  0  0  0  0  0  0  0  0  0  0
   13.5280   10.3522   19.3586 C   0  0  0  0  0  0  0  0  0  0  0  0
    9.6923    5.6468   22.7891 C   0  0  0  0  0  0  0  0  0  0  0  0
   11.7756   10.2554   20.8841 N   0  0  0  0  0  0  0  0  0  0  0  0
    8.9876   11.9370   19.8757 O   0  0  0  0  0  0  0  0  0  0  0  0
    6.0167    8.4478   21.1089 C   0  0  0  0  0  0  0  0  0  0  0  0
   11.0002   10.8890   20.0262 C   0  0  0  0  0  0  0  0  0  0  0  0
    2.1721    7.7393   20.0315 O   0  0  0  0  0  0  0  0  0  0  0  0
    9.1107   10.3880   21.3769 N   0  0  0  0  0  0  0  0  0  0  0  0
    3.9102    9.2008   20.3124 C   0  0  0  0  0  0  0  0  0  0  0  0
   12.7292   10.9960   18.4597 C   0  0  0  0  0  0  0  0  0  0  0  0
    9.3798    6.6793   23.6625 C   0  0  0  0  0  0  0  0  0  0  0  0
   14.7425   10.0739   19.0802 O   0  0  0  0  0  0  0  0  0  0  0  0
    5.1894    9.4673   20.7118 C   0  0  0  0  0  0  0  0  0  0  0  0
    7.3773    8.8224   21.4870 C   0  0  0  0  0  0  0  0  0  0  0  0
    8.4391    6.6439   21.0235 C   0  0  0  0  0  0  0  0  0  0  0  0
    9.6494   11.1353   20.4167 C   0  0  0  0  0  0  0  0  0  0  0  0
    8.1431    7.6829   21.9046 C   0  0  0  0  0  0  0  0  0  0  0  0
    7.7796   10.1314   21.5115 N   0  0  0  0  0  0  0  0  0  0  0  0
    9.2768    5.6183   21.4437 C   0  0  0  0  0  0  0  0  0  0  0  0
    8.6315    7.7322   23.1768 C   0  0  0  0  0  0  0  0  0  0  0  0
   13.0537    9.9821   20.5781 C   0  0  0  0  0  0  0  0  0  0  0  0
   10.3850    4.6575   23.2386 O   0  0  0  0  0  0  0  0  0  0  0  0
    4.2069    6.8450   20.7994 C   0  0  0  0  0  0  0  0  0  0  0  0
    3.0726   10.1043   19.8522 O   0  0  0  0  0  0  0  0  0  0  0  0
    5.5057    7.1196   21.1155 C   0  0  0  0  0  0  0  0  0  0  0  0
    7.0367   11.0229   21.9948 O   0  0  0  0  0  0  0  0  0  0  0  0
  1  8  4  0
  1 12  4  0
  2  9  1  0
  2 11  4  0
  2 25  4  0
  3 12  4  0
  3 14  1  0
  3 23  4  0
  4 13  4  0
  4 21  4  0
  4 24  1  0
  5  8  4  0
  5 23  4  0
  6 18  2  0
  7 15  4  0
  7 16  1  0
  7 27  4  0
  8 18  1  0
 10 18  1  0
 10 20  1  0
 11 15  4  0
 11 26  1  0
 13 22  4  0
 16 19  1  0
 16 20  2  0
 17 19  4  0
 17 21  4  0
 19 22  4  0
 20 28  1  0
 25 27  4  0
M  END
$$$$

 Created by Python create_sdf_string function

 28 30  0  0  0  0  0  0  0  0999 V2000
   11.4592   11.2893   18.7941 C   0  0  0  0  0  0  0  0  0  0  0  0
    3.4202    7.9009   20.3866 C   0  0  0  0  0  0  0  0  0  0  0  0
   13.5280   10.3522   19.3586 C   0  0  0  0  0  0  0  0  0  0  0  0
    9.6923    5.6468   22.7891 C   0  0  0  0  0  0  0  0  0  0  0  0
   11.7756   10.2554   20.8841 N   0  0  0  0  0  0  0  0  0  0  0  0
    8.9876   11.9370   19.8757 O   0  0  0  0  0  0  0  0  0  0  0  0
    6.0167    8.4478   21.1089 C   0  0  0  0  0  0  0  0  0  0  0  0
   11.0002   10.8890   20.0262 C   0  0  0  0  0  0  0  0  0  0  0  0
    2.1721    7.7393   20.0315 O   0  0  0  0  0  0  0  0  0  0  0  0
    9.1107   10.3880   21.3769 N   0  0  0  0  0  0  0  0  0  0  0  0
    3.9102    9.2008   20.3124 C   0  0  0  0  0  0  0  0  0  0  0  0
   12.7292   10.9960   18.4597 C   0  0  0  0  0  0  0  0  0  0  0  0
    9.3798    6.6793   23.6625 C   0  0  0  0  0  0  0  0  0  0  0  0
   14.7425   10.0739   19.0802 O   0  0  0  0  0  0  0  0  0  0  0  0
    5.1894    9.4673   20.7118 C   0  0  0  0  0  0  0  0  0  0  0  0
    7.3773    8.8224   21.4870 C   0  0  0  0  0  0  0  0  0  0  0  0
    8.4391    6.6439   21.0235 C   0  0  0  0  0  0  0  0  0  0  0  0
    9.6494   11.1353   20.4167 C   0  0  0  0  0  0  0  0  0  0  0  0
    8.1431    7.6829   21.9046 C   0  0  0  0  0  0  0  0  0  0  0  0
    7.7796   10.1314   21.5115 N   0  0  0  0  0  0  0  0  0  0  0  0
    9.2768    5.6183   21.4437 C   0  0  0  0  0  0  0  0  0  0  0  0
    8.6315    7.7322   23.1768 C   0  0  0  0  0  0  0  0  0  0  0  0
   13.0537    9.9821   20.5781 C   0  0  0  0  0  0  0  0  0  0  0  0
   10.3850    4.6575   23.2386 O   0  0  0  0  0  0  0  0  0  0  0  0
    4.2069    6.8450   20.7994 C   0  0  0  0  0  0  0  0  0  0  0  0
    3.0726   10.1043   19.8522 O   0  0  0  0  0  0  0  0  0  0  0  0
    5.5057    7.1196   21.1155 C   0  0  0  0  0  0  0  0  0  0  0  0
    7.0367   11.0229   21.9948 O   0  0  0  0  0  0  0  0  0  0  0  0
  1  8  4  0
  1 12  4  0
  2  9  1  0
  2 11  4  0
  2 25  4  0
  3 12  4  0
  3 14  1  0
  3 23  4  0
  4 13  4  0
  4 21  4  0
  4 24  1  0
  5  8  4  0
  5 23  4  0
  6 18  2  0
  7 15  4  0
  7 16  1  0
  7 27  4  0
  8 18  1  0
 10 18  1  0
 10 20  1  0
 11 15  4  0
 11 26  1  0
 13 22  4  0
 16 19  1  0
 16 20  2  0
 17 19  4  0
 17 21  4  0
 19 22  4  0
 20 28  1  0
 25 27  4  0
M  END
$$$$

 Created by Python create_sdf_string function

 28 30  0  0  0  0  0  0  0  0999 V2000
   11.4592   11.2893   18.7941 C   0  0  0  0  0  0  0  0  0  0  0  0
    3.4202    7.9009   20.3866 C   0  0  0  0  0  0  0  0  0  0  0  0
   13.5280   10.3522   19.3586 C   0  0  0  0  0  0  0  0  0  0  0  0
    9.6923    5.6468   22.7891 C   0  0  0  0  0  0  0  0  0  0  0  0
   11.7756   10.2554   20.8841 N   0  0  0  0  0  0  0  0  0  0  0  0
    8.9876   11.9370   19.8757 O   0  0  0  0  0  0  0  0  0  0  0  0
    6.0167    8.4478   21.1089 C   0  0  0  0  0  0  0  0  0  0  0  0
   11.0002   10.8890   20.0262 C   0  0  0  0  0  0  0  0  0  0  0  0
    2.1721    7.7393   20.0315 O   0  0  0  0  0  0  0  0  0  0  0  0
    9.1107   10.3880   21.3769 N   0  0  0  0  0  0  0  0  0  0  0  0
    3.9102    9.2008   20.3124 C   0  0  0  0  0  0  0  0  0  0  0  0
   12.7292   10.9960   18.4597 C   0  0  0  0  0  0  0  0  0  0  0  0
    9.3798    6.6793   23.6625 C   0  0  0  0  0  0  0  0  0  0  0  0
   14.7425   10.0739   19.0802 O   0  0  0  0  0  0  0  0  0  0  0  0
    5.1894    9.4673   20.7118 C   0  0  0  0  0  0  0  0  0  0  0  0
    7.3773    8.8224   21.4870 C   0  0  0  0  0  0  0  0  0  0  0  0
    8.4391    6.6439   21.0235 C   0  0  0  0  0  0  0  0  0  0  0  0
    9.6494   11.1353   20.4167 C   0  0  0  0  0  0  0  0  0  0  0  0
    8.1431    7.6829   21.9046 C   0  0  0  0  0  0  0  0  0  0  0  0
    7.7796   10.1314   21.5115 N   0  0  0  0  0  0  0  0  0  0  0  0
    9.2768    5.6183   21.4437 C   0  0  0  0  0  0  0  0  0  0  0  0
    8.6315    7.7322   23.1768 C   0  0  0  0  0  0  0  0  0  0  0  0
   13.0537    9.9821   20.5781 C   0  0  0  0  0  0  0  0  0  0  0  0
   10.3850    4.6575   23.2386 O   0  0  0  0  0  0  0  0  0  0  0  0
    4.2069    6.8450   20.7994 C   0  0  0  0  0  0  0  0  0  0  0  0
    3.0726   10.1043   19.8522 O   0  0  0  0  0  0  0  0  0  0  0  0
    5.5057    7.1196   21.1155 C   0  0  0  0  0  0  0  0  0  0  0  0
    7.0367   11.0229   21.9948 O   0  0  0  0  0  0  0  0  0  0  0  0
  1  8  4  0
  1 12  4  0
  2  9  1  0
  2 11  4  0
  2 25  4  0
  3 12  4  0
  3 14  1  0
  3 23  4  0
  4 13  4  0
  4 21  4  0
  4 24  1  0
  5  8  4  0
  5 23  4  0
  6 18  2  0
  7 15  4  0
  7 16  1  0
  7 27  4  0
  8 18  1  0
 10 18  1  0
 10 20  1  0
 11 15  4  0
 11 26  1  0
 13 22  4  0
 16 19  1  0
 16 20  2  0
 17 19  4  0
 17 21  4  0
 19 22  4  0
 20 28  1  0
 25 27  4  0
M  END
$$$$

 Created by Python create_sdf_string function

 28 30  0  0  0  0  0  0  0  0999 V2000
   11.4592   11.2893   18.7941 C   0  0  0  0  0  0  0  0  0  0  0  0
    3.4202    7.9009   20.3866 C   0  0  0  0  0  0  0  0  0  0  0  0
   13.5280   10.3522   19.3586 C   0  0  0  0  0  0  0  0  0  0  0  0
    9.6923    5.6468   22.7891 C   0  0  0  0  0  0  0  0  0  0  0  0
   11.7756   10.2554   20.8841 N   0  0  0  0  0  0  0  0  0  0  0  0
    8.9876   11.9370   19.8757 O   0  0  0  0  0  0  0  0  0  0  0  0
    6.0167    8.4478   21.1089 C   0  0  0  0  0  0  0  0  0  0  0  0
   11.0002   10.8890   20.0262 C   0  0  0  0  0  0  0  0  0  0  0  0
    2.1721    7.7393   20.0315 O   0  0  0  0  0  0  0  0  0  0  0  0
    9.1107   10.3880   21.3769 N   0  0  0  0  0  0  0  0  0  0  0  0
    3.9102    9.2008   20.3124 C   0  0  0  0  0  0  0  0  0  0  0  0
   12.7292   10.9960   18.4597 C   0  0  0  0  0  0  0  0  0  0  0  0
    9.3798    6.6793   23.6625 C   0  0  0  0  0  0  0  0  0  0  0  0
   14.7425   10.0739   19.0802 O   0  0  0  0  0  0  0  0  0  0  0  0
    5.1894    9.4673   20.7118 C   0  0  0  0  0  0  0  0  0  0  0  0
    7.3773    8.8224   21.4870 C   0  0  0  0  0  0  0  0  0  0  0  0
    8.4391    6.6439   21.0235 C   0  0  0  0  0  0  0  0  0  0  0  0
    9.6494   11.1353   20.4167 C   0  0  0  0  0  0  0  0  0  0  0  0
    8.1431    7.6829   21.9046 C   0  0  0  0  0  0  0  0  0  0  0  0
    7.7796   10.1314   21.5115 N   0  0  0  0  0  0  0  0  0  0  0  0
    9.2768    5.6183   21.4437 C   0  0  0  0  0  0  0  0  0  0  0  0
    8.6315    7.7322   23.1768 C   0  0  0  0  0  0  0  0  0  0  0  0
   13.0537    9.9821   20.5781 C   0  0  0  0  0  0  0  0  0  0  0  0
   10.3850    4.6575   23.2386 O   0  0  0  0  0  0  0  0  0  0  0  0
    4.2069    6.8450   20.7994 C   0  0  0  0  0  0  0  0  0  0  0  0
    3.0726   10.1043   19.8522 O   0  0  0  0  0  0  0  0  0  0  0  0
    5.5057    7.1196   21.1155 C   0  0  0  0  0  0  0  0  0  0  0  0
    7.0367   11.0229   21.9948 O   0  0  0  0  0  0  0  0  0  0  0  0
  1  8  4  0
  1 12  4  0
  2  9  1  0
  2 11  4  0
  2 25  4  0
  3 12  4  0
  3 14  1  0
  3 23  4  0
  4 13  4  0
  4 21  4  0
  4 24  1  0
  5  8  4  0
  5 23  4  0
  6 18  2  0
  7 15  4  0
  7 16  1  0
  7 27  4  0
  8 18  1  0
 10 18  1  0
 10 20  1  0
 11 15  4  0
 11 26  1  0
 13 22  4  0
 16 19  1  0
 16 20  2  0
 17 19  4  0
 17 21  4  0
 19 22  4  0
 20 28  1  0
 25 27  4  0
M  END
$$$$

 Created by Python create_sdf_string function

 28 30  0  0  0  0  0  0  0  0999 V2000
   11.4592   11.2893   18.7941 C   0  0  0  0  0  0  0  0  0  0  0  0
    3.4202    7.9009   20.3866 C   0  0  0  0  0  0  0  0  0  0  0  0
   13.5280   10.3522   19.3586 C   0  0  0  0  0  0  0  0  0  0  0  0
    9.6923    5.6468   22.7891 C   0  0  0  0  0  0  0  0  0  0  0  0
   11.7756   10.2554   20.8841 N   0  0  0  0  0  0  0  0  0  0  0  0
    8.9876   11.9370   19.8757 O   0  0  0  0  0  0  0  0  0  0  0  0
    6.0167    8.4478   21.1089 C   0  0  0  0  0  0  0  0  0  0  0  0
   11.0002   10.8890   20.0262 C   0  0  0  0  0  0  0  0  0  0  0  0
    2.1721    7.7393   20.0315 O   0  0  0  0  0  0  0  0  0  0  0  0
    9.1107   10.3880   21.3769 N   0  0  0  0  0  0  0  0  0  0  0  0
    3.9102    9.2008   20.3124 C   0  0  0  0  0  0  0  0  0  0  0  0
   12.7292   10.9960   18.4597 C   0  0  0  0  0  0  0  0  0  0  0  0
    9.3798    6.6793   23.6625 C   0  0  0  0  0  0  0  0  0  0  0  0
   14.7425   10.0739   19.0802 O   0  0  0  0  0  0  0  0  0  0  0  0
    5.1894    9.4673   20.7118 C   0  0  0  0  0  0  0  0  0  0  0  0
    7.3773    8.8224   21.4870 C   0  0  0  0  0  0  0  0  0  0  0  0
    8.4391    6.6439   21.0235 C   0  0  0  0  0  0  0  0  0  0  0  0
    9.6494   11.1353   20.4167 C   0  0  0  0  0  0  0  0  0  0  0  0
    8.1431    7.6829   21.9046 C   0  0  0  0  0  0  0  0  0  0  0  0
    7.7796   10.1314   21.5115 N   0  0  0  0  0  0  0  0  0  0  0  0
    9.2768    5.6183   21.4437 C   0  0  0  0  0  0  0  0  0  0  0  0
    8.6315    7.7322   23.1768 C   0  0  0  0  0  0  0  0  0  0  0  0
   13.0537    9.9821   20.5781 C   0  0  0  0  0  0  0  0  0  0  0  0
   10.3850    4.6575   23.2386 O   0  0  0  0  0  0  0  0  0  0  0  0
    4.2069    6.8450   20.7994 C   0  0  0  0  0  0  0  0  0  0  0  0
    3.0726   10.1043   19.8522 O   0  0  0  0  0  0  0  0  0  0  0  0
    5.5057    7.1196   21.1155 C   0  0  0  0  0  0  0  0  0  0  0  0
    7.0367   11.0229   21.9948 O   0  0  0  0  0  0  0  0  0  0  0  0
  1  8  4  0
  1 12  4  0
  2  9  1  0
  2 11  4  0
  2 25  4  0
  3 12  4  0
  3 14  1  0
  3 23  4  0
  4 13  4  0
  4 21  4  0
  4 24  1  0
  5  8  4  0
  5 23  4  0
  6 18  2  0
  7 15  4  0
  7 16  1  0
  7 27  4  0
  8 18  1  0
 10 18  1  0
 10 20  1  0
 11 15  4  0
 11 26  1  0
 13 22  4  0
 16 19  1  0
 16 20  2  0
 17 19  4  0
 17 21  4  0
 19 22  4  0
 20 28  1  0
 25 27  4  0
M  END
$$$$

 Created by Python create_sdf_string function

 28 30  0  0  0  0  0  0  0  0999 V2000
   11.4592   11.2893   18.7941 C   0  0  0  0  0  0  0  0  0  0  0  0
    3.4202    7.9009   20.3866 C   0  0  0  0  0  0  0  0  0  0  0  0
   13.5280   10.3522   19.3586 C   0  0  0  0  0  0  0  0  0  0  0  0
    9.6923    5.6468   22.7891 C   0  0  0  0  0  0  0  0  0  0  0  0
   11.7756   10.2554   20.8841 N   0  0  0  0  0  0  0  0  0  0  0  0
    8.9876   11.9370   19.8757 O   0  0  0  0  0  0  0  0  0  0  0  0
    6.0167    8.4478   21.1089 C   0  0  0  0  0  0  0  0  0  0  0  0
   11.0002   10.8890   20.0262 C   0  0  0  0  0  0  0  0  0  0  0  0
    2.1721    7.7393   20.0315 O   0  0  0  0  0  0  0  0  0  0  0  0
    9.1107   10.3880   21.3769 N   0  0  0  0  0  0  0  0  0  0  0  0
    3.9102    9.2008   20.3124 C   0  0  0  0  0  0  0  0  0  0  0  0
   12.7292   10.9960   18.4597 C   0  0  0  0  0  0  0  0  0  0  0  0
    9.3798    6.6793   23.6625 C   0  0  0  0  0  0  0  0  0  0  0  0
   14.7425   10.0739   19.0802 O   0  0  0  0  0  0  0  0  0  0  0  0
    5.1894    9.4673   20.7118 C   0  0  0  0  0  0  0  0  0  0  0  0
    7.3773    8.8224   21.4870 C   0  0  0  0  0  0  0  0  0  0  0  0
    8.4391    6.6439   21.0235 C   0  0  0  0  0  0  0  0  0  0  0  0
    9.6494   11.1353   20.4167 C   0  0  0  0  0  0  0  0  0  0  0  0
    8.1431    7.6829   21.9046 C   0  0  0  0  0  0  0  0  0  0  0  0
    7.7796   10.1314   21.5115 N   0  0  0  0  0  0  0  0  0  0  0  0
    9.2768    5.6183   21.4437 C   0  0  0  0  0  0  0  0  0  0  0  0
    8.6315    7.7322   23.1768 C   0  0  0  0  0  0  0  0  0  0  0  0
   13.0537    9.9821   20.5781 C   0  0  0  0  0  0  0  0  0  0  0  0
   10.3850    4.6575   23.2386 O   0  0  0  0  0  0  0  0  0  0  0  0
    4.2069    6.8450   20.7994 C   0  0  0  0  0  0  0  0  0  0  0  0
    3.0726   10.1043   19.8522 O   0  0  0  0  0  0  0  0  0  0  0  0
    5.5057    7.1196   21.1155 C   0  0  0  0  0  0  0  0  0  0  0  0
    7.0367   11.0229   21.9948 O   0  0  0  0  0  0  0  0  0  0  0  0
  1  8  4  0
  1 12  4  0
  2  9  1  0
  2 11  4  0
  2 25  4  0
  3 12  4  0
  3 14  1  0
  3 23  4  0
  4 13  4  0
  4 21  4  0
  4 24  1  0
  5  8  4  0
  5 23  4  0
  6 18  2  0
  7 15  4  0
  7 16  1  0
  7 27  4  0
  8 18  1  0
 10 18  1  0
 10 20  1  0
 11 15  4  0
 11 26  1  0
 13 22  4  0
 16 19  1  0
 16 20  2  0
 17 19  4  0
 17 21  4  0
 19 22  4  0
 20 28  1  0
 25 27  4  0
M  END
$$$$

 Created by Python create_sdf_string function

 28 30  0  0  0  0  0  0  0  0999 V2000
   11.4592   11.2893   18.7941 C   0  0  0  0  0  0  0  0  0  0  0  0
    3.4202    7.9009   20.3866 C   0  0  0  0  0  0  0  0  0  0  0  0
   13.5280   10.3522   19.3586 C   0  0  0  0  0  0  0  0  0  0  0  0
    9.6923    5.6468   22.7891 C   0  0  0  0  0  0  0  0  0  0  0  0
   11.7756   10.2554   20.8841 N   0  0  0  0  0  0  0  0  0  0  0  0
    8.9876   11.9370   19.8757 O   0  0  0  0  0  0  0  0  0  0  0  0
    6.0167    8.4478   21.1089 C   0  0  0  0  0  0  0  0  0  0  0  0
   11.0002   10.8890   20.0262 C   0  0  0  0  0  0  0  0  0  0  0  0
    2.1721    7.7393   20.0315 O   0  0  0  0  0  0  0  0  0  0  0  0
    9.1107   10.3880   21.3769 N   0  0  0  0  0  0  0  0  0  0  0  0
    3.9102    9.2008   20.3124 C   0  0  0  0  0  0  0  0  0  0  0  0
   12.7292   10.9960   18.4597 C   0  0  0  0  0  0  0  0  0  0  0  0
    9.3798    6.6793   23.6625 C   0  0  0  0  0  0  0  0  0  0  0  0
   14.7425   10.0739   19.0802 O   0  0  0  0  0  0  0  0  0  0  0  0
    5.1894    9.4673   20.7118 C   0  0  0  0  0  0  0  0  0  0  0  0
    7.3773    8.8224   21.4870 C   0  0  0  0  0  0  0  0  0  0  0  0
    8.4391    6.6439   21.0235 C   0  0  0  0  0  0  0  0  0  0  0  0
    9.6494   11.1353   20.4167 C   0  0  0  0  0  0  0  0  0  0  0  0
    8.1431    7.6829   21.9046 C   0  0  0  0  0  0  0  0  0  0  0  0
    7.7796   10.1314   21.5115 N   0  0  0  0  0  0  0  0  0  0  0  0
    9.2768    5.6183   21.4437 C   0  0  0  0  0  0  0  0  0  0  0  0
    8.6315    7.7322   23.1768 C   0  0  0  0  0  0  0  0  0  0  0  0
   13.0537    9.9821   20.5781 C   0  0  0  0  0  0  0  0  0  0  0  0
   10.3850    4.6575   23.2386 O   0  0  0  0  0  0  0  0  0  0  0  0
    4.2069    6.8450   20.7994 C   0  0  0  0  0  0  0  0  0  0  0  0
    3.0726   10.1043   19.8522 O   0  0  0  0  0  0  0  0  0  0  0  0
    5.5057    7.1196   21.1155 C   0  0  0  0  0  0  0  0  0  0  0  0
    7.0367   11.0229   21.9948 O   0  0  0  0  0  0  0  0  0  0  0  0
  1  8  4  0
  1 12  4  0
  2  9  1  0
  2 11  4  0
  2 25  4  0
  3 12  4  0
  3 14  1  0
  3 23  4  0
  4 13  4  0
  4 21  4  0
  4 24  1  0
  5  8  4  0
  5 23  4  0
  6 18  2  0
  7 15  4  0
  7 16  1  0
  7 27  4  0
  8 18  1  0
 10 18  1  0
 10 20  1  0
 11 15  4  0
 11 26  1  0
 13 22  4  0
 16 19  1  0
 16 20  2  0
 17 19  4  0
 17 21  4  0
 19 22  4  0
 20 28  1  0
 25 27  4  0
M  END
$$$$

 Created by Python create_sdf_string function

 28 30  0  0  0  0  0  0  0  0999 V2000
   11.4592   11.2893   18.7941 C   0  0  0  0  0  0  0  0  0  0  0  0
    3.4202    7.9009   20.3866 C   0  0  0  0  0  0  0  0  0  0  0  0
   13.5280   10.3522   19.3586 C   0  0  0  0  0  0  0  0  0  0  0  0
    9.6923    5.6468   22.7891 C   0  0  0  0  0  0  0  0  0  0  0  0
   11.7756   10.2554   20.8841 N   0  0  0  0  0  0  0  0  0  0  0  0
    8.9876   11.9370   19.8757 O   0  0  0  0  0  0  0  0  0  0  0  0
    6.0167    8.4478   21.1089 C   0  0  0  0  0  0  0  0  0  0  0  0
   11.0002   10.8890   20.0262 C   0  0  0  0  0  0  0  0  0  0  0  0
    2.1721    7.7393   20.0315 O   0  0  0  0  0  0  0  0  0  0  0  0
    9.1107   10.3880   21.3769 N   0  0  0  0  0  0  0  0  0  0  0  0
    3.9102    9.2008   20.3124 C   0  0  0  0  0  0  0  0  0  0  0  0
   12.7292   10.9960   18.4597 C   0  0  0  0  0  0  0  0  0  0  0  0
    9.3798    6.6793   23.6625 C   0  0  0  0  0  0  0  0  0  0  0  0
   14.7425   10.0739   19.0802 O   0  0  0  0  0  0  0  0  0  0  0  0
    5.1894    9.4673   20.7118 C   0  0  0  0  0  0  0  0  0  0  0  0
    7.3773    8.8224   21.4870 C   0  0  0  0  0  0  0  0  0  0  0  0
    8.4391    6.6439   21.0235 C   0  0  0  0  0  0  0  0  0  0  0  0
    9.6494   11.1353   20.4167 C   0  0  0  0  0  0  0  0  0  0  0  0
    8.1431    7.6829   21.9046 C   0  0  0  0  0  0  0  0  0  0  0  0
    7.7796   10.1314   21.5115 N   0  0  0  0  0  0  0  0  0  0  0  0
    9.2768    5.6183   21.4437 C   0  0  0  0  0  0  0  0  0  0  0  0
    8.6315    7.7322   23.1768 C   0  0  0  0  0  0  0  0  0  0  0  0
   13.0537    9.9821   20.5781 C   0  0  0  0  0  0  0  0  0  0  0  0
   10.3850    4.6575   23.2386 O   0  0  0  0  0  0  0  0  0  0  0  0
    4.2069    6.8450   20.7994 C   0  0  0  0  0  0  0  0  0  0  0  0
    3.0726   10.1043   19.8522 O   0  0  0  0  0  0  0  0  0  0  0  0
    5.5057    7.1196   21.1155 C   0  0  0  0  0  0  0  0  0  0  0  0
    7.0367   11.0229   21.9948 O   0  0  0  0  0  0  0  0  0  0  0  0
  1  8  4  0
  1 12  4  0
  2  9  1  0
  2 11  4  0
  2 25  4  0
  3 12  4  0
  3 14  1  0
  3 23  4  0
  4 13  4  0
  4 21  4  0
  4 24  1  0
  5  8  4  0
  5 23  4  0
  6 18  2  0
  7 15  4  0
  7 16  1  0
  7 27  4  0
  8 18  1  0
 10 18  1  0
 10 20  1  0
 11 15  4  0
 11 26  1  0
 13 22  4  0
 16 19  1  0
 16 20  2  0
 17 19  4  0
 17 21  4  0
 19 22  4  0
 20 28  1  0
 25 27  4  0
M  END
$$$$

 Created by Python create_sdf_string function

 28 30  0  0  0  0  0  0  0  0999 V2000
   11.4592   11.2893   18.7941 C   0  0  0  0  0  0  0  0  0  0  0  0
    3.4202    7.9009   20.3866 C   0  0  0  0  0  0  0  0  0  0  0  0
   13.5280   10.3522   19.3586 C   0  0  0  0  0  0  0  0  0  0  0  0
    9.6923    5.6468   22.7891 C   0  0  0  0  0  0  0  0  0  0  0  0
   11.7756   10.2554   20.8841 N   0  0  0  0  0  0  0  0  0  0  0  0
    8.9876   11.9370   19.8757 O   0  0  0  0  0  0  0  0  0  0  0  0
    6.0167    8.4478   21.1089 C   0  0  0  0  0  0  0  0  0  0  0  0
   11.0002   10.8890   20.0262 C   0  0  0  0  0  0  0  0  0  0  0  0
    2.1721    7.7393   20.0315 O   0  0  0  0  0  0  0  0  0  0  0  0
    9.1107   10.3880   21.3769 N   0  0  0  0  0  0  0  0  0  0  0  0
    3.9102    9.2008   20.3124 C   0  0  0  0  0  0  0  0  0  0  0  0
   12.7292   10.9960   18.4597 C   0  0  0  0  0  0  0  0  0  0  0  0
    9.3798    6.6793   23.6625 C   0  0  0  0  0  0  0  0  0  0  0  0
   14.7425   10.0739   19.0802 O   0  0  0  0  0  0  0  0  0  0  0  0
    5.1894    9.4673   20.7118 C   0  0  0  0  0  0  0  0  0  0  0  0
    7.3773    8.8224   21.4870 C   0  0  0  0  0  0  0  0  0  0  0  0
    8.4391    6.6439   21.0235 C   0  0  0  0  0  0  0  0  0  0  0  0
    9.6494   11.1353   20.4167 C   0  0  0  0  0  0  0  0  0  0  0  0
    8.1431    7.6829   21.9046 C   0  0  0  0  0  0  0  0  0  0  0  0
    7.7796   10.1314   21.5115 N   0  0  0  0  0  0  0  0  0  0  0  0
    9.2768    5.6183   21.4437 C   0  0  0  0  0  0  0  0  0  0  0  0
    8.6315    7.7322   23.1768 C   0  0  0  0  0  0  0  0  0  0  0  0
   13.0537    9.9821   20.5781 C   0  0  0  0  0  0  0  0  0  0  0  0
   10.3850    4.6575   23.2386 O   0  0  0  0  0  0  0  0  0  0  0  0
    4.2069    6.8450   20.7994 C   0  0  0  0  0  0  0  0  0  0  0  0
    3.0726   10.1043   19.8522 O   0  0  0  0  0  0  0  0  0  0  0  0
    5.5057    7.1196   21.1155 C   0  0  0  0  0  0  0  0  0  0  0  0
    7.0367   11.0229   21.9948 O   0  0  0  0  0  0  0  0  0  0  0  0
  1  8  4  0
  1 12  4  0
  2  9  1  0
  2 11  4  0
  2 25  4  0
  3 12  4  0
  3 14  1  0
  3 23  4  0
  4 13  4  0
  4 21  4  0
  4 24  1  0
  5  8  4  0
  5 23  4  0
  6 18  2  0
  7 15  4  0
  7 16  1  0
  7 27  4  0
  8 18  1  0
 10 18  1  0
 10 20  1  0
 11 15  4  0
 11 26  1  0
 13 22  4  0
 16 19  1  0
 16 20  2  0
 17 19  4  0
 17 21  4  0
 19 22  4  0
 20 28  1  0
 25 27  4  0
M  END
$$$$

 Created by Python create_sdf_string function

 28 30  0  0  0  0  0  0  0  0999 V2000
   11.4592   11.2893   18.7941 C   0  0  0  0  0  0  0  0  0  0  0  0
    3.4202    7.9009   20.3866 C   0  0  0  0  0  0  0  0  0  0  0  0
   13.5280   10.3522   19.3586 C   0  0  0  0  0  0  0  0  0  0  0  0
    9.6923    5.6468   22.7891 C   0  0  0  0  0  0  0  0  0  0  0  0
   11.7756   10.2554   20.8841 N   0  0  0  0  0  0  0  0  0  0  0  0
    8.9876   11.9370   19.8757 O   0  0  0  0  0  0  0  0  0  0  0  0
    6.0167    8.4478   21.1089 C   0  0  0  0  0  0  0  0  0  0  0  0
   11.0002   10.8890   20.0262 C   0  0  0  0  0  0  0  0  0  0  0  0
    2.1721    7.7393   20.0315 O   0  0  0  0  0  0  0  0  0  0  0  0
    9.1107   10.3880   21.3769 N   0  0  0  0  0  0  0  0  0  0  0  0
    3.9102    9.2008   20.3124 C   0  0  0  0  0  0  0  0  0  0  0  0
   12.7292   10.9960   18.4597 C   0  0  0  0  0  0  0  0  0  0  0  0
    9.3798    6.6793   23.6625 C   0  0  0  0  0  0  0  0  0  0  0  0
   14.7425   10.0739   19.0802 O   0  0  0  0  0  0  0  0  0  0  0  0
    5.1894    9.4673   20.7118 C   0  0  0  0  0  0  0  0  0  0  0  0
    7.3773    8.8224   21.4870 C   0  0  0  0  0  0  0  0  0  0  0  0
    8.4391    6.6439   21.0235 C   0  0  0  0  0  0  0  0  0  0  0  0
    9.6494   11.1353   20.4167 C   0  0  0  0  0  0  0  0  0  0  0  0
    8.1431    7.6829   21.9046 C   0  0  0  0  0  0  0  0  0  0  0  0
    7.7796   10.1314   21.5115 N   0  0  0  0  0  0  0  0  0  0  0  0
    9.2768    5.6183   21.4437 C   0  0  0  0  0  0  0  0  0  0  0  0
    8.6315    7.7322   23.1768 C   0  0  0  0  0  0  0  0  0  0  0  0
   13.0537    9.9821   20.5781 C   0  0  0  0  0  0  0  0  0  0  0  0
   10.3850    4.6575   23.2386 O   0  0  0  0  0  0  0  0  0  0  0  0
    4.2069    6.8450   20.7994 C   0  0  0  0  0  0  0  0  0  0  0  0
    3.0726   10.1043   19.8522 O   0  0  0  0  0  0  0  0  0  0  0  0
    5.5057    7.1196   21.1155 C   0  0  0  0  0  0  0  0  0  0  0  0
    7.0367   11.0229   21.9948 O   0  0  0  0  0  0  0  0  0  0  0  0
  1  8  4  0
  1 12  4  0
  2  9  1  0
  2 11  4  0
  2 25  4  0
  3 12  4  0
  3 14  1  0
  3 23  4  0
  4 13  4  0
  4 21  4  0
  4 24  1  0
  5  8  4  0
  5 23  4  0
  6 18  2  0
  7 15  4  0
  7 16  1  0
  7 27  4  0
  8 18  1  0
 10 18  1  0
 10 20  1  0
 11 15  4  0
 11 26  1  0
 13 22  4  0
 16 19  1  0
 16 20  2  0
 17 19  4  0
 17 21  4  0
 19 22  4  0
 20 28  1  0
 25 27  4  0
M  END
$$$$

 Created by Python create_sdf_string function

 28 30  0  0  0  0  0  0  0  0999 V2000
   11.4592   11.2893   18.7941 C   0  0  0  0  0  0  0  0  0  0  0  0
    3.4202    7.9009   20.3866 C   0  0  0  0  0  0  0  0  0  0  0  0
   13.5280   10.3522   19.3586 C   0  0  0  0  0  0  0  0  0  0  0  0
    9.6923    5.6468   22.7891 C   0  0  0  0  0  0  0  0  0  0  0  0
   11.7756   10.2554   20.8841 N   0  0  0  0  0  0  0  0  0  0  0  0
    8.9876   11.9370   19.8757 O   0  0  0  0  0  0  0  0  0  0  0  0
    6.0167    8.4478   21.1089 C   0  0  0  0  0  0  0  0  0  0  0  0
   11.0002   10.8890   20.0262 C   0  0  0  0  0  0  0  0  0  0  0  0
    2.1721    7.7393   20.0315 O   0  0  0  0  0  0  0  0  0  0  0  0
    9.1107   10.3880   21.3769 N   0  0  0  0  0  0  0  0  0  0  0  0
    3.9102    9.2008   20.3124 C   0  0  0  0  0  0  0  0  0  0  0  0
   12.7292   10.9960   18.4597 C   0  0  0  0  0  0  0  0  0  0  0  0
    9.3798    6.6793   23.6625 C   0  0  0  0  0  0  0  0  0  0  0  0
   14.7425   10.0739   19.0802 O   0  0  0  0  0  0  0  0  0  0  0  0
    5.1894    9.4673   20.7118 C   0  0  0  0  0  0  0  0  0  0  0  0
    7.3773    8.8224   21.4870 C   0  0  0  0  0  0  0  0  0  0  0  0
    8.4391    6.6439   21.0235 C   0  0  0  0  0  0  0  0  0  0  0  0
    9.6494   11.1353   20.4167 C   0  0  0  0  0  0  0  0  0  0  0  0
    8.1431    7.6829   21.9046 C   0  0  0  0  0  0  0  0  0  0  0  0
    7.7796   10.1314   21.5115 N   0  0  0  0  0  0  0  0  0  0  0  0
    9.2768    5.6183   21.4437 C   0  0  0  0  0  0  0  0  0  0  0  0
    8.6315    7.7322   23.1768 C   0  0  0  0  0  0  0  0  0  0  0  0
   13.0537    9.9821   20.5781 C   0  0  0  0  0  0  0  0  0  0  0  0
   10.3850    4.6575   23.2386 O   0  0  0  0  0  0  0  0  0  0  0  0
    4.2069    6.8450   20.7994 C   0  0  0  0  0  0  0  0  0  0  0  0
    3.0726   10.1043   19.8522 O   0  0  0  0  0  0  0  0  0  0  0  0
    5.5057    7.1196   21.1155 C   0  0  0  0  0  0  0  0  0  0  0  0
    7.0367   11.0229   21.9948 O   0  0  0  0  0  0  0  0  0  0  0  0
  1  8  4  0
  1 12  4  0
  2  9  1  0
  2 11  4  0
  2 25  4  0
  3 12  4  0
  3 14  1  0
  3 23  4  0
  4 13  4  0
  4 21  4  0
  4 24  1  0
  5  8  4  0
  5 23  4  0
  6 18  2  0
  7 15  4  0
  7 16  1  0
  7 27  4  0
  8 18  1  0
 10 18  1  0
 10 20  1  0
 11 15  4  0
 11 26  1  0
 13 22  4  0
 16 19  1  0
 16 20  2  0
 17 19  4  0
 17 21  4  0
 19 22  4  0
 20 28  1  0
 25 27  4  0
M  END
$$$$

 Created by Python create_sdf_string function

 28 30  0  0  0  0  0  0  0  0999 V2000
   11.4592   11.2893   18.7941 C   0  0  0  0  0  0  0  0  0  0  0  0
    3.4202    7.9009   20.3866 C   0  0  0  0  0  0  0  0  0  0  0  0
   13.5280   10.3522   19.3586 C   0  0  0  0  0  0  0  0  0  0  0  0
    9.6923    5.6468   22.7891 C   0  0  0  0  0  0  0  0  0  0  0  0
   11.7756   10.2554   20.8841 N   0  0  0  0  0  0  0  0  0  0  0  0
    8.9876   11.9370   19.8757 O   0  0  0  0  0  0  0  0  0  0  0  0
    6.0167    8.4478   21.1089 C   0  0  0  0  0  0  0  0  0  0  0  0
   11.0002   10.8890   20.0262 C   0  0  0  0  0  0  0  0  0  0  0  0
    2.1721    7.7393   20.0315 O   0  0  0  0  0  0  0  0  0  0  0  0
    9.1107   10.3880   21.3769 N   0  0  0  0  0  0  0  0  0  0  0  0
    3.9102    9.2008   20.3124 C   0  0  0  0  0  0  0  0  0  0  0  0
   12.7292   10.9960   18.4597 C   0  0  0  0  0  0  0  0  0  0  0  0
    9.3798    6.6793   23.6625 C   0  0  0  0  0  0  0  0  0  0  0  0
   14.7425   10.0739   19.0802 O   0  0  0  0  0  0  0  0  0  0  0  0
    5.1894    9.4673   20.7118 C   0  0  0  0  0  0  0  0  0  0  0  0
    7.3773    8.8224   21.4870 C   0  0  0  0  0  0  0  0  0  0  0  0
    8.4391    6.6439   21.0235 C   0  0  0  0  0  0  0  0  0  0  0  0
    9.6494   11.1353   20.4167 C   0  0  0  0  0  0  0  0  0  0  0  0
    8.1431    7.6829   21.9046 C   0  0  0  0  0  0  0  0  0  0  0  0
    7.7796   10.1314   21.5115 N   0  0  0  0  0  0  0  0  0  0  0  0
    9.2768    5.6183   21.4437 C   0  0  0  0  0  0  0  0  0  0  0  0
    8.6315    7.7322   23.1768 C   0  0  0  0  0  0  0  0  0  0  0  0
   13.0537    9.9821   20.5781 C   0  0  0  0  0  0  0  0  0  0  0  0
   10.3850    4.6575   23.2386 O   0  0  0  0  0  0  0  0  0  0  0  0
    4.2069    6.8450   20.7994 C   0  0  0  0  0  0  0  0  0  0  0  0
    3.0726   10.1043   19.8522 O   0  0  0  0  0  0  0  0  0  0  0  0
    5.5057    7.1196   21.1155 C   0  0  0  0  0  0  0  0  0  0  0  0
    7.0367   11.0229   21.9948 O   0  0  0  0  0  0  0  0  0  0  0  0
  1  8  4  0
  1 12  4  0
  2  9  1  0
  2 11  4  0
  2 25  4  0
  3 12  4  0
  3 14  1  0
  3 23  4  0
  4 13  4  0
  4 21  4  0
  4 24  1  0
  5  8  4  0
  5 23  4  0
  6 18  2  0
  7 15  4  0
  7 16  1  0
  7 27  4  0
  8 18  1  0
 10 18  1  0
 10 20  1  0
 11 15  4  0
 11 26  1  0
 13 22  4  0
 16 19  1  0
 16 20  2  0
 17 19  4  0
 17 21  4  0
 19 22  4  0
 20 28  1  0
 25 27  4  0
M  END
$$$$

 Created by Python create_sdf_string function

 28 30  0  0  0  0  0  0  0  0999 V2000
   11.4592   11.2893   18.7941 C   0  0  0  0  0  0  0  0  0  0  0  0
    3.4202    7.9009   20.3866 C   0  0  0  0  0  0  0  0  0  0  0  0
   13.5280   10.3522   19.3586 C   0  0  0  0  0  0  0  0  0  0  0  0
    9.6923    5.6468   22.7891 C   0  0  0  0  0  0  0  0  0  0  0  0
   11.7756   10.2554   20.8841 N   0  0  0  0  0  0  0  0  0  0  0  0
    8.9876   11.9370   19.8757 O   0  0  0  0  0  0  0  0  0  0  0  0
    6.0167    8.4478   21.1089 C   0  0  0  0  0  0  0  0  0  0  0  0
   11.0002   10.8890   20.0262 C   0  0  0  0  0  0  0  0  0  0  0  0
    2.1721    7.7393   20.0315 O   0  0  0  0  0  0  0  0  0  0  0  0
    9.1107   10.3880   21.3769 N   0  0  0  0  0  0  0  0  0  0  0  0
    3.9102    9.2008   20.3124 C   0  0  0  0  0  0  0  0  0  0  0  0
   12.7292   10.9960   18.4597 C   0  0  0  0  0  0  0  0  0  0  0  0
    9.3798    6.6793   23.6625 C   0  0  0  0  0  0  0  0  0  0  0  0
   14.7425   10.0739   19.0802 O   0  0  0  0  0  0  0  0  0  0  0  0
    5.1894    9.4673   20.7118 C   0  0  0  0  0  0  0  0  0  0  0  0
    7.3773    8.8224   21.4870 C   0  0  0  0  0  0  0  0  0  0  0  0
    8.4391    6.6439   21.0235 C   0  0  0  0  0  0  0  0  0  0  0  0
    9.6494   11.1353   20.4167 C   0  0  0  0  0  0  0  0  0  0  0  0
    8.1431    7.6829   21.9046 C   0  0  0  0  0  0  0  0  0  0  0  0
    7.7796   10.1314   21.5115 N   0  0  0  0  0  0  0  0  0  0  0  0
    9.2768    5.6183   21.4437 C   0  0  0  0  0  0  0  0  0  0  0  0
    8.6315    7.7322   23.1768 C   0  0  0  0  0  0  0  0  0  0  0  0
   13.0537    9.9821   20.5781 C   0  0  0  0  0  0  0  0  0  0  0  0
   10.3850    4.6575   23.2386 O   0  0  0  0  0  0  0  0  0  0  0  0
    4.2069    6.8450   20.7994 C   0  0  0  0  0  0  0  0  0  0  0  0
    3.0726   10.1043   19.8522 O   0  0  0  0  0  0  0  0  0  0  0  0
    5.5057    7.1196   21.1155 C   0  0  0  0  0  0  0  0  0  0  0  0
    7.0367   11.0229   21.9948 O   0  0  0  0  0  0  0  0  0  0  0  0
  1  8  4  0
  1 12  4  0
  2  9  1  0
  2 11  4  0
  2 25  4  0
  3 12  4  0
  3 14  1  0
  3 23  4  0
  4 13  4  0
  4 21  4  0
  4 24  1  0
  5  8  4  0
  5 23  4  0
  6 18  2  0
  7 15  4  0
  7 16  1  0
  7 27  4  0
  8 18  1  0
 10 18  1  0
 10 20  1  0
 11 15  4  0
 11 26  1  0
 13 22  4  0
 16 19  1  0
 16 20  2  0
 17 19  4  0
 17 21  4  0
 19 22  4  0
 20 28  1  0
 25 27  4  0
M  END
$$$$

 Created by Python create_sdf_string function

 28 30  0  0  0  0  0  0  0  0999 V2000
   11.4592   11.2893   18.7941 C   0  0  0  0  0  0  0  0  0  0  0  0
    3.4202    7.9009   20.3866 C   0  0  0  0  0  0  0  0  0  0  0  0
   13.5280   10.3522   19.3586 C   0  0  0  0  0  0  0  0  0  0  0  0
    9.6923    5.6468   22.7891 C   0  0  0  0  0  0  0  0  0  0  0  0
   11.7756   10.2554   20.8841 N   0  0  0  0  0  0  0  0  0  0  0  0
    8.9876   11.9370   19.8757 O   0  0  0  0  0  0  0  0  0  0  0  0
    6.0167    8.4478   21.1089 C   0  0  0  0  0  0  0  0  0  0  0  0
   11.0002   10.8890   20.0262 C   0  0  0  0  0  0  0  0  0  0  0  0
    2.1721    7.7393   20.0315 O   0  0  0  0  0  0  0  0  0  0  0  0
    9.1107   10.3880   21.3769 N   0  0  0  0  0  0  0  0  0  0  0  0
    3.9102    9.2008   20.3124 C   0  0  0  0  0  0  0  0  0  0  0  0
   12.7292   10.9960   18.4597 C   0  0  0  0  0  0  0  0  0  0  0  0
    9.3798    6.6793   23.6625 C   0  0  0  0  0  0  0  0  0  0  0  0
   14.7425   10.0739   19.0802 O   0  0  0  0  0  0  0  0  0  0  0  0
    5.1894    9.4673   20.7118 C   0  0  0  0  0  0  0  0  0  0  0  0
    7.3773    8.8224   21.4870 C   0  0  0  0  0  0  0  0  0  0  0  0
    8.4391    6.6439   21.0235 C   0  0  0  0  0  0  0  0  0  0  0  0
    9.6494   11.1353   20.4167 C   0  0  0  0  0  0  0  0  0  0  0  0
    8.1431    7.6829   21.9046 C   0  0  0  0  0  0  0  0  0  0  0  0
    7.7796   10.1314   21.5115 N   0  0  0  0  0  0  0  0  0  0  0  0
    9.2768    5.6183   21.4437 C   0  0  0  0  0  0  0  0  0  0  0  0
    8.6315    7.7322   23.1768 C   0  0  0  0  0  0  0  0  0  0  0  0
   13.0537    9.9821   20.5781 C   0  0  0  0  0  0  0  0  0  0  0  0
   10.3850    4.6575   23.2386 O   0  0  0  0  0  0  0  0  0  0  0  0
    4.2069    6.8450   20.7994 C   0  0  0  0  0  0  0  0  0  0  0  0
    3.0726   10.1043   19.8522 O   0  0  0  0  0  0  0  0  0  0  0  0
    5.5057    7.1196   21.1155 C   0  0  0  0  0  0  0  0  0  0  0  0
    7.0367   11.0229   21.9948 O   0  0  0  0  0  0  0  0  0  0  0  0
  1  8  4  0
  1 12  4  0
  2  9  1  0
  2 11  4  0
  2 25  4  0
  3 12  4  0
  3 14  1  0
  3 23  4  0
  4 13  4  0
  4 21  4  0
  4 24  1  0
  5  8  4  0
  5 23  4  0
  6 18  2  0
  7 15  4  0
  7 16  1  0
  7 27  4  0
  8 18  1  0
 10 18  1  0
 10 20  1  0
 11 15  4  0
 11 26  1  0
 13 22  4  0
 16 19  1  0
 16 20  2  0
 17 19  4  0
 17 21  4  0
 19 22  4  0
 20 28  1  0
 25 27  4  0
M  END
$$$$

 Created by Python create_sdf_string function

 28 30  0  0  0  0  0  0  0  0999 V2000
   11.4592   11.2893   18.7941 C   0  0  0  0  0  0  0  0  0  0  0  0
    3.4202    7.9009   20.3866 C   0  0  0  0  0  0  0  0  0  0  0  0
   13.5280   10.3522   19.3586 C   0  0  0  0  0  0  0  0  0  0  0  0
    9.6923    5.6468   22.7891 C   0  0  0  0  0  0  0  0  0  0  0  0
   11.7756   10.2554   20.8841 N   0  0  0  0  0  0  0  0  0  0  0  0
    8.9876   11.9370   19.8757 O   0  0  0  0  0  0  0  0  0  0  0  0
    6.0167    8.4478   21.1089 C   0  0  0  0  0  0  0  0  0  0  0  0
   11.0002   10.8890   20.0262 C   0  0  0  0  0  0  0  0  0  0  0  0
    2.1721    7.7393   20.0315 O   0  0  0  0  0  0  0  0  0  0  0  0
    9.1107   10.3880   21.3769 N   0  0  0  0  0  0  0  0  0  0  0  0
    3.9102    9.2008   20.3124 C   0  0  0  0  0  0  0  0  0  0  0  0
   12.7292   10.9960   18.4597 C   0  0  0  0  0  0  0  0  0  0  0  0
    9.3798    6.6793   23.6625 C   0  0  0  0  0  0  0  0  0  0  0  0
   14.7425   10.0739   19.0802 O   0  0  0  0  0  0  0  0  0  0  0  0
    5.1894    9.4673   20.7118 C   0  0  0  0  0  0  0  0  0  0  0  0
    7.3773    8.8224   21.4870 C   0  0  0  0  0  0  0  0  0  0  0  0
    8.4391    6.6439   21.0235 C   0  0  0  0  0  0  0  0  0  0  0  0
    9.6494   11.1353   20.4167 C   0  0  0  0  0  0  0  0  0  0  0  0
    8.1431    7.6829   21.9046 C   0  0  0  0  0  0  0  0  0  0  0  0
    7.7796   10.1314   21.5115 N   0  0  0  0  0  0  0  0  0  0  0  0
    9.2768    5.6183   21.4437 C   0  0  0  0  0  0  0  0  0  0  0  0
    8.6315    7.7322   23.1768 C   0  0  0  0  0  0  0  0  0  0  0  0
   13.0537    9.9821   20.5781 C   0  0  0  0  0  0  0  0  0  0  0  0
   10.3850    4.6575   23.2386 O   0  0  0  0  0  0  0  0  0  0  0  0
    4.2069    6.8450   20.7994 C   0  0  0  0  0  0  0  0  0  0  0  0
    3.0726   10.1043   19.8522 O   0  0  0  0  0  0  0  0  0  0  0  0
    5.5057    7.1196   21.1155 C   0  0  0  0  0  0  0  0  0  0  0  0
    7.0367   11.0229   21.9948 O   0  0  0  0  0  0  0  0  0  0  0  0
  1  8  4  0
  1 12  4  0
  2  9  1  0
  2 11  4  0
  2 25  4  0
  3 12  4  0
  3 14  1  0
  3 23  4  0
  4 13  4  0
  4 21  4  0
  4 24  1  0
  5  8  4  0
  5 23  4  0
  6 18  2  0
  7 15  4  0
  7 16  1  0
  7 27  4  0
  8 18  1  0
 10 18  1  0
 10 20  1  0
 11 15  4  0
 11 26  1  0
 13 22  4  0
 16 19  1  0
 16 20  2  0
 17 19  4  0
 17 21  4  0
 19 22  4  0
 20 28  1  0
 25 27  4  0
M  END
$$$$

 Created by Python create_sdf_string function

 28 30  0  0  0  0  0  0  0  0999 V2000
   11.4592   11.2893   18.7941 C   0  0  0  0  0  0  0  0  0  0  0  0
    3.4202    7.9009   20.3866 C   0  0  0  0  0  0  0  0  0  0  0  0
   13.5280   10.3522   19.3586 C   0  0  0  0  0  0  0  0  0  0  0  0
    9.6923    5.6468   22.7891 C   0  0  0  0  0  0  0  0  0  0  0  0
   11.7756   10.2554   20.8841 N   0  0  0  0  0  0  0  0  0  0  0  0
    8.9876   11.9370   19.8757 O   0  0  0  0  0  0  0  0  0  0  0  0
    6.0167    8.4478   21.1089 C   0  0  0  0  0  0  0  0  0  0  0  0
   11.0002   10.8890   20.0262 C   0  0  0  0  0  0  0  0  0  0  0  0
    2.1721    7.7393   20.0315 O   0  0  0  0  0  0  0  0  0  0  0  0
    9.1107   10.3880   21.3769 N   0  0  0  0  0  0  0  0  0  0  0  0
    3.9102    9.2008   20.3124 C   0  0  0  0  0  0  0  0  0  0  0  0
   12.7292   10.9960   18.4597 C   0  0  0  0  0  0  0  0  0  0  0  0
    9.3798    6.6793   23.6625 C   0  0  0  0  0  0  0  0  0  0  0  0
   14.7425   10.0739   19.0802 O   0  0  0  0  0  0  0  0  0  0  0  0
    5.1894    9.4673   20.7118 C   0  0  0  0  0  0  0  0  0  0  0  0
    7.3773    8.8224   21.4870 C   0  0  0  0  0  0  0  0  0  0  0  0
    8.4391    6.6439   21.0235 C   0  0  0  0  0  0  0  0  0  0  0  0
    9.6494   11.1353   20.4167 C   0  0  0  0  0  0  0  0  0  0  0  0
    8.1431    7.6829   21.9046 C   0  0  0  0  0  0  0  0  0  0  0  0
    7.7796   10.1314   21.5115 N   0  0  0  0  0  0  0  0  0  0  0  0
    9.2768    5.6183   21.4437 C   0  0  0  0  0  0  0  0  0  0  0  0
    8.6315    7.7322   23.1768 C   0  0  0  0  0  0  0  0  0  0  0  0
   13.0537    9.9821   20.5781 C   0  0  0  0  0  0  0  0  0  0  0  0
   10.3850    4.6575   23.2386 O   0  0  0  0  0  0  0  0  0  0  0  0
    4.2069    6.8450   20.7994 C   0  0  0  0  0  0  0  0  0  0  0  0
    3.0726   10.1043   19.8522 O   0  0  0  0  0  0  0  0  0  0  0  0
    5.5057    7.1196   21.1155 C   0  0  0  0  0  0  0  0  0  0  0  0
    7.0367   11.0229   21.9948 O   0  0  0  0  0  0  0  0  0  0  0  0
  1  8  4  0
  1 12  4  0
  2  9  1  0
  2 11  4  0
  2 25  4  0
  3 12  4  0
  3 14  1  0
  3 23  4  0
  4 13  4  0
  4 21  4  0
  4 24  1  0
  5  8  4  0
  5 23  4  0
  6 18  2  0
  7 15  4  0
  7 16  1  0
  7 27  4  0
  8 18  1  0
 10 18  1  0
 10 20  1  0
 11 15  4  0
 11 26  1  0
 13 22  4  0
 16 19  1  0
 16 20  2  0
 17 19  4  0
 17 21  4  0
 19 22  4  0
 20 28  1  0
 25 27  4  0
M  END
$$$$

 Created by Python create_sdf_string function

 28 30  0  0  0  0  0  0  0  0999 V2000
   11.4592   11.2893   18.7941 C   0  0  0  0  0  0  0  0  0  0  0  0
    3.4202    7.9009   20.3866 C   0  0  0  0  0  0  0  0  0  0  0  0
   13.5280   10.3522   19.3586 C   0  0  0  0  0  0  0  0  0  0  0  0
    9.6923    5.6468   22.7891 C   0  0  0  0  0  0  0  0  0  0  0  0
   11.7756   10.2554   20.8841 N   0  0  0  0  0  0  0  0  0  0  0  0
    8.9876   11.9370   19.8757 O   0  0  0  0  0  0  0  0  0  0  0  0
    6.0167    8.4478   21.1089 C   0  0  0  0  0  0  0  0  0  0  0  0
   11.0002   10.8890   20.0262 C   0  0  0  0  0  0  0  0  0  0  0  0
    2.1721    7.7393   20.0315 O   0  0  0  0  0  0  0  0  0  0  0  0
    9.1107   10.3880   21.3769 N   0  0  0  0  0  0  0  0  0  0  0  0
    3.9102    9.2008   20.3124 C   0  0  0  0  0  0  0  0  0  0  0  0
   12.7292   10.9960   18.4597 C   0  0  0  0  0  0  0  0  0  0  0  0
    9.3798    6.6793   23.6625 C   0  0  0  0  0  0  0  0  0  0  0  0
   14.7425   10.0739   19.0802 O   0  0  0  0  0  0  0  0  0  0  0  0
    5.1894    9.4673   20.7118 C   0  0  0  0  0  0  0  0  0  0  0  0
    7.3773    8.8224   21.4870 C   0  0  0  0  0  0  0  0  0  0  0  0
    8.4391    6.6439   21.0235 C   0  0  0  0  0  0  0  0  0  0  0  0
    9.6494   11.1353   20.4167 C   0  0  0  0  0  0  0  0  0  0  0  0
    8.1431    7.6829   21.9046 C   0  0  0  0  0  0  0  0  0  0  0  0
    7.7796   10.1314   21.5115 N   0  0  0  0  0  0  0  0  0  0  0  0
    9.2768    5.6183   21.4437 C   0  0  0  0  0  0  0  0  0  0  0  0
    8.6315    7.7322   23.1768 C   0  0  0  0  0  0  0  0  0  0  0  0
   13.0537    9.9821   20.5781 C   0  0  0  0  0  0  0  0  0  0  0  0
   10.3850    4.6575   23.2386 O   0  0  0  0  0  0  0  0  0  0  0  0
    4.2069    6.8450   20.7994 C   0  0  0  0  0  0  0  0  0  0  0  0
    3.0726   10.1043   19.8522 O   0  0  0  0  0  0  0  0  0  0  0  0
    5.5057    7.1196   21.1155 C   0  0  0  0  0  0  0  0  0  0  0  0
    7.0367   11.0229   21.9948 O   0  0  0  0  0  0  0  0  0  0  0  0
  1  8  4  0
  1 12  4  0
  2  9  1  0
  2 11  4  0
  2 25  4  0
  3 12  4  0
  3 14  1  0
  3 23  4  0
  4 13  4  0
  4 21  4  0
  4 24  1  0
  5  8  4  0
  5 23  4  0
  6 18  2  0
  7 15  4  0
  7 16  1  0
  7 27  4  0
  8 18  1  0
 10 18  1  0
 10 20  1  0
 11 15  4  0
 11 26  1  0
 13 22  4  0
 16 19  1  0
 16 20  2  0
 17 19  4  0
 17 21  4  0
 19 22  4  0
 20 28  1  0
 25 27  4  0
M  END
$$$$

 Created by Python create_sdf_string function

 28 30  0  0  0  0  0  0  0  0999 V2000
   11.4592   11.2893   18.7941 C   0  0  0  0  0  0  0  0  0  0  0  0
    3.4202    7.9009   20.3866 C   0  0  0  0  0  0  0  0  0  0  0  0
   13.5280   10.3522   19.3586 C   0  0  0  0  0  0  0  0  0  0  0  0
    9.6923    5.6468   22.7891 C   0  0  0  0  0  0  0  0  0  0  0  0
   11.7756   10.2554   20.8841 N   0  0  0  0  0  0  0  0  0  0  0  0
    8.9876   11.9370   19.8757 O   0  0  0  0  0  0  0  0  0  0  0  0
    6.0167    8.4478   21.1089 C   0  0  0  0  0  0  0  0  0  0  0  0
   11.0002   10.8890   20.0262 C   0  0  0  0  0  0  0  0  0  0  0  0
    2.1721    7.7393   20.0315 O   0  0  0  0  0  0  0  0  0  0  0  0
    9.1107   10.3880   21.3769 N   0  0  0  0  0  0  0  0  0  0  0  0
    3.9102    9.2008   20.3124 C   0  0  0  0  0  0  0  0  0  0  0  0
   12.7292   10.9960   18.4597 C   0  0  0  0  0  0  0  0  0  0  0  0
    9.3798    6.6793   23.6625 C   0  0  0  0  0  0  0  0  0  0  0  0
   14.7425   10.0739   19.0802 O   0  0  0  0  0  0  0  0  0  0  0  0
    5.1894    9.4673   20.7118 C   0  0  0  0  0  0  0  0  0  0  0  0
    7.3773    8.8224   21.4870 C   0  0  0  0  0  0  0  0  0  0  0  0
    8.4391    6.6439   21.0235 C   0  0  0  0  0  0  0  0  0  0  0  0
    9.6494   11.1353   20.4167 C   0  0  0  0  0  0  0  0  0  0  0  0
    8.1431    7.6829   21.9046 C   0  0  0  0  0  0  0  0  0  0  0  0
    7.7796   10.1314   21.5115 N   0  0  0  0  0  0  0  0  0  0  0  0
    9.2768    5.6183   21.4437 C   0  0  0  0  0  0  0  0  0  0  0  0
    8.6315    7.7322   23.1768 C   0  0  0  0  0  0  0  0  0  0  0  0
   13.0537    9.9821   20.5781 C   0  0  0  0  0  0  0  0  0  0  0  0
   10.3850    4.6575   23.2386 O   0  0  0  0  0  0  0  0  0  0  0  0
    4.2069    6.8450   20.7994 C   0  0  0  0  0  0  0  0  0  0  0  0
    3.0726   10.1043   19.8522 O   0  0  0  0  0  0  0  0  0  0  0  0
    5.5057    7.1196   21.1155 C   0  0  0  0  0  0  0  0  0  0  0  0
    7.0367   11.0229   21.9948 O   0  0  0  0  0  0  0  0  0  0  0  0
  1  8  4  0
  1 12  4  0
  2  9  1  0
  2 11  4  0
  2 25  4  0
  3 12  4  0
  3 14  1  0
  3 23  4  0
  4 13  4  0
  4 21  4  0
  4 24  1  0
  5  8  4  0
  5 23  4  0
  6 18  2  0
  7 15  4  0
  7 16  1  0
  7 27  4  0
  8 18  1  0
 10 18  1  0
 10 20  1  0
 11 15  4  0
 11 26  1  0
 13 22  4  0
 16 19  1  0
 16 20  2  0
 17 19  4  0
 17 21  4  0
 19 22  4  0
 20 28  1  0
 25 27  4  0
M  END
$$$$

 Created by Python create_sdf_string function

 28 30  0  0  0  0  0  0  0  0999 V2000
   11.4592   11.2893   18.7941 C   0  0  0  0  0  0  0  0  0  0  0  0
    3.4202    7.9009   20.3866 C   0  0  0  0  0  0  0  0  0  0  0  0
   13.5280   10.3522   19.3586 C   0  0  0  0  0  0  0  0  0  0  0  0
    9.6923    5.6468   22.7891 C   0  0  0  0  0  0  0  0  0  0  0  0
   11.7756   10.2554   20.8841 N   0  0  0  0  0  0  0  0  0  0  0  0
    8.9876   11.9370   19.8757 O   0  0  0  0  0  0  0  0  0  0  0  0
    6.0167    8.4478   21.1089 C   0  0  0  0  0  0  0  0  0  0  0  0
   11.0002   10.8890   20.0262 C   0  0  0  0  0  0  0  0  0  0  0  0
    2.1721    7.7393   20.0315 O   0  0  0  0  0  0  0  0  0  0  0  0
    9.1107   10.3880   21.3769 N   0  0  0  0  0  0  0  0  0  0  0  0
    3.9102    9.2008   20.3124 C   0  0  0  0  0  0  0  0  0  0  0  0
   12.7292   10.9960   18.4597 C   0  0  0  0  0  0  0  0  0  0  0  0
    9.3798    6.6793   23.6625 C   0  0  0  0  0  0  0  0  0  0  0  0
   14.7425   10.0739   19.0802 O   0  0  0  0  0  0  0  0  0  0  0  0
    5.1894    9.4673   20.7118 C   0  0  0  0  0  0  0  0  0  0  0  0
    7.3773    8.8224   21.4870 C   0  0  0  0  0  0  0  0  0  0  0  0
    8.4391    6.6439   21.0235 C   0  0  0  0  0  0  0  0  0  0  0  0
    9.6494   11.1353   20.4167 C   0  0  0  0  0  0  0  0  0  0  0  0
    8.1431    7.6829   21.9046 C   0  0  0  0  0  0  0  0  0  0  0  0
    7.7796   10.1314   21.5115 N   0  0  0  0  0  0  0  0  0  0  0  0
    9.2768    5.6183   21.4437 C   0  0  0  0  0  0  0  0  0  0  0  0
    8.6315    7.7322   23.1768 C   0  0  0  0  0  0  0  0  0  0  0  0
   13.0537    9.9821   20.5781 C   0  0  0  0  0  0  0  0  0  0  0  0
   10.3850    4.6575   23.2386 O   0  0  0  0  0  0  0  0  0  0  0  0
    4.2069    6.8450   20.7994 C   0  0  0  0  0  0  0  0  0  0  0  0
    3.0726   10.1043   19.8522 O   0  0  0  0  0  0  0  0  0  0  0  0
    5.5057    7.1196   21.1155 C   0  0  0  0  0  0  0  0  0  0  0  0
    7.0367   11.0229   21.9948 O   0  0  0  0  0  0  0  0  0  0  0  0
  1  8  4  0
  1 12  4  0
  2  9  1  0
  2 11  4  0
  2 25  4  0
  3 12  4  0
  3 14  1  0
  3 23  4  0
  4 13  4  0
  4 21  4  0
  4 24  1  0
  5  8  4  0
  5 23  4  0
  6 18  2  0
  7 15  4  0
  7 16  1  0
  7 27  4  0
  8 18  1  0
 10 18  1  0
 10 20  1  0
 11 15  4  0
 11 26  1  0
 13 22  4  0
 16 19  1  0
 16 20  2  0
 17 19  4  0
 17 21  4  0
 19 22  4  0
 20 28  1  0
 25 27  4  0
M  END
$$$$

 Created by Python create_sdf_string function

 28 30  0  0  0  0  0  0  0  0999 V2000
   11.4592   11.2893   18.7941 C   0  0  0  0  0  0  0  0  0  0  0  0
    3.4202    7.9009   20.3866 C   0  0  0  0  0  0  0  0  0  0  0  0
   13.5280   10.3522   19.3586 C   0  0  0  0  0  0  0  0  0  0  0  0
    9.6923    5.6468   22.7891 C   0  0  0  0  0  0  0  0  0  0  0  0
   11.7756   10.2554   20.8841 N   0  0  0  0  0  0  0  0  0  0  0  0
    8.9876   11.9370   19.8757 O   0  0  0  0  0  0  0  0  0  0  0  0
    6.0167    8.4478   21.1089 C   0  0  0  0  0  0  0  0  0  0  0  0
   11.0002   10.8890   20.0262 C   0  0  0  0  0  0  0  0  0  0  0  0
    2.1721    7.7393   20.0315 O   0  0  0  0  0  0  0  0  0  0  0  0
    9.1107   10.3880   21.3769 N   0  0  0  0  0  0  0  0  0  0  0  0
    3.9102    9.2008   20.3124 C   0  0  0  0  0  0  0  0  0  0  0  0
   12.7292   10.9960   18.4597 C   0  0  0  0  0  0  0  0  0  0  0  0
    9.3798    6.6793   23.6625 C   0  0  0  0  0  0  0  0  0  0  0  0
   14.7425   10.0739   19.0802 O   0  0  0  0  0  0  0  0  0  0  0  0
    5.1894    9.4673   20.7118 C   0  0  0  0  0  0  0  0  0  0  0  0
    7.3773    8.8224   21.4870 C   0  0  0  0  0  0  0  0  0  0  0  0
    8.4391    6.6439   21.0235 C   0  0  0  0  0  0  0  0  0  0  0  0
    9.6494   11.1353   20.4167 C   0  0  0  0  0  0  0  0  0  0  0  0
    8.1431    7.6829   21.9046 C   0  0  0  0  0  0  0  0  0  0  0  0
    7.7796   10.1314   21.5115 N   0  0  0  0  0  0  0  0  0  0  0  0
    9.2768    5.6183   21.4437 C   0  0  0  0  0  0  0  0  0  0  0  0
    8.6315    7.7322   23.1768 C   0  0  0  0  0  0  0  0  0  0  0  0
   13.0537    9.9821   20.5781 C   0  0  0  0  0  0  0  0  0  0  0  0
   10.3850    4.6575   23.2386 O   0  0  0  0  0  0  0  0  0  0  0  0
    4.2069    6.8450   20.7994 C   0  0  0  0  0  0  0  0  0  0  0  0
    3.0726   10.1043   19.8522 O   0  0  0  0  0  0  0  0  0  0  0  0
    5.5057    7.1196   21.1155 C   0  0  0  0  0  0  0  0  0  0  0  0
    7.0367   11.0229   21.9948 O   0  0  0  0  0  0  0  0  0  0  0  0
  1  8  4  0
  1 12  4  0
  2  9  1  0
  2 11  4  0
  2 25  4  0
  3 12  4  0
  3 14  1  0
  3 23  4  0
  4 13  4  0
  4 21  4  0
  4 24  1  0
  5  8  4  0
  5 23  4  0
  6 18  2  0
  7 15  4  0
  7 16  1  0
  7 27  4  0
  8 18  1  0
 10 18  1  0
 10 20  1  0
 11 15  4  0
 11 26  1  0
 13 22  4  0
 16 19  1  0
 16 20  2  0
 17 19  4  0
 17 21  4  0
 19 22  4  0
 20 28  1  0
 25 27  4  0
M  END
$$$$

 Created by Python create_sdf_string function

 28 30  0  0  0  0  0  0  0  0999 V2000
   11.4592   11.2893   18.7941 C   0  0  0  0  0  0  0  0  0  0  0  0
    3.4202    7.9009   20.3866 C   0  0  0  0  0  0  0  0  0  0  0  0
   13.5280   10.3522   19.3586 C   0  0  0  0  0  0  0  0  0  0  0  0
    9.6923    5.6468   22.7891 C   0  0  0  0  0  0  0  0  0  0  0  0
   11.7756   10.2554   20.8841 N   0  0  0  0  0  0  0  0  0  0  0  0
    8.9876   11.9370   19.8757 O   0  0  0  0  0  0  0  0  0  0  0  0
    6.0167    8.4478   21.1089 C   0  0  0  0  0  0  0  0  0  0  0  0
   11.0002   10.8890   20.0262 C   0  0  0  0  0  0  0  0  0  0  0  0
    2.1721    7.7393   20.0315 O   0  0  0  0  0  0  0  0  0  0  0  0
    9.1107   10.3880   21.3769 N   0  0  0  0  0  0  0  0  0  0  0  0
    3.9102    9.2008   20.3124 C   0  0  0  0  0  0  0  0  0  0  0  0
   12.7292   10.9960   18.4597 C   0  0  0  0  0  0  0  0  0  0  0  0
    9.3798    6.6793   23.6625 C   0  0  0  0  0  0  0  0  0  0  0  0
   14.7425   10.0739   19.0802 O   0  0  0  0  0  0  0  0  0  0  0  0
    5.1894    9.4673   20.7118 C   0  0  0  0  0  0  0  0  0  0  0  0
    7.3773    8.8224   21.4870 C   0  0  0  0  0  0  0  0  0  0  0  0
    8.4391    6.6439   21.0235 C   0  0  0  0  0  0  0  0  0  0  0  0
    9.6494   11.1353   20.4167 C   0  0  0  0  0  0  0  0  0  0  0  0
    8.1431    7.6829   21.9046 C   0  0  0  0  0  0  0  0  0  0  0  0
    7.7796   10.1314   21.5115 N   0  0  0  0  0  0  0  0  0  0  0  0
    9.2768    5.6183   21.4437 C   0  0  0  0  0  0  0  0  0  0  0  0
    8.6315    7.7322   23.1768 C   0  0  0  0  0  0  0  0  0  0  0  0
   13.0537    9.9821   20.5781 C   0  0  0  0  0  0  0  0  0  0  0  0
   10.3850    4.6575   23.2386 O   0  0  0  0  0  0  0  0  0  0  0  0
    4.2069    6.8450   20.7994 C   0  0  0  0  0  0  0  0  0  0  0  0
    3.0726   10.1043   19.8522 O   0  0  0  0  0  0  0  0  0  0  0  0
    5.5057    7.1196   21.1155 C   0  0  0  0  0  0  0  0  0  0  0  0
    7.0367   11.0229   21.9948 O   0  0  0  0  0  0  0  0  0  0  0  0
  1  8  4  0
  1 12  4  0
  2  9  1  0
  2 11  4  0
  2 25  4  0
  3 12  4  0
  3 14  1  0
  3 23  4  0
  4 13  4  0
  4 21  4  0
  4 24  1  0
  5  8  4  0
  5 23  4  0
  6 18  2  0
  7 15  4  0
  7 16  1  0
  7 27  4  0
  8 18  1  0
 10 18  1  0
 10 20  1  0
 11 15  4  0
 11 26  1  0
 13 22  4  0
 16 19  1  0
 16 20  2  0
 17 19  4  0
 17 21  4  0
 19 22  4  0
 20 28  1  0
 25 27  4  0
M  END
$$$$

 Created by Python create_sdf_string function

 28 30  0  0  0  0  0  0  0  0999 V2000
   11.4592   11.2893   18.7941 C   0  0  0  0  0  0  0  0  0  0  0  0
    3.4202    7.9009   20.3866 C   0  0  0  0  0  0  0  0  0  0  0  0
   13.5280   10.3522   19.3586 C   0  0  0  0  0  0  0  0  0  0  0  0
    9.6923    5.6468   22.7891 C   0  0  0  0  0  0  0  0  0  0  0  0
   11.7756   10.2554   20.8841 N   0  0  0  0  0  0  0  0  0  0  0  0
    8.9876   11.9370   19.8757 O   0  0  0  0  0  0  0  0  0  0  0  0
    6.0167    8.4478   21.1089 C   0  0  0  0  0  0  0  0  0  0  0  0
   11.0002   10.8890   20.0262 C   0  0  0  0  0  0  0  0  0  0  0  0
    2.1721    7.7393   20.0315 O   0  0  0  0  0  0  0  0  0  0  0  0
    9.1107   10.3880   21.3769 N   0  0  0  0  0  0  0  0  0  0  0  0
    3.9102    9.2008   20.3124 C   0  0  0  0  0  0  0  0  0  0  0  0
   12.7292   10.9960   18.4597 C   0  0  0  0  0  0  0  0  0  0  0  0
    9.3798    6.6793   23.6625 C   0  0  0  0  0  0  0  0  0  0  0  0
   14.7425   10.0739   19.0802 O   0  0  0  0  0  0  0  0  0  0  0  0
    5.1894    9.4673   20.7118 C   0  0  0  0  0  0  0  0  0  0  0  0
    7.3773    8.8224   21.4870 C   0  0  0  0  0  0  0  0  0  0  0  0
    8.4391    6.6439   21.0235 C   0  0  0  0  0  0  0  0  0  0  0  0
    9.6494   11.1353   20.4167 C   0  0  0  0  0  0  0  0  0  0  0  0
    8.1431    7.6829   21.9046 C   0  0  0  0  0  0  0  0  0  0  0  0
    7.7796   10.1314   21.5115 N   0  0  0  0  0  0  0  0  0  0  0  0
    9.2768    5.6183   21.4437 C   0  0  0  0  0  0  0  0  0  0  0  0
    8.6315    7.7322   23.1768 C   0  0  0  0  0  0  0  0  0  0  0  0
   13.0537    9.9821   20.5781 C   0  0  0  0  0  0  0  0  0  0  0  0
   10.3850    4.6575   23.2386 O   0  0  0  0  0  0  0  0  0  0  0  0
    4.2069    6.8450   20.7994 C   0  0  0  0  0  0  0  0  0  0  0  0
    3.0726   10.1043   19.8522 O   0  0  0  0  0  0  0  0  0  0  0  0
    5.5057    7.1196   21.1155 C   0  0  0  0  0  0  0  0  0  0  0  0
    7.0367   11.0229   21.9948 O   0  0  0  0  0  0  0  0  0  0  0  0
  1  8  4  0
  1 12  4  0
  2  9  1  0
  2 11  4  0
  2 25  4  0
  3 12  4  0
  3 14  1  0
  3 23  4  0
  4 13  4  0
  4 21  4  0
  4 24  1  0
  5  8  4  0
  5 23  4  0
  6 18  2  0
  7 15  4  0
  7 16  1  0
  7 27  4  0
  8 18  1  0
 10 18  1  0
 10 20  1  0
 11 15  4  0
 11 26  1  0
 13 22  4  0
 16 19  1  0
 16 20  2  0
 17 19  4  0
 17 21  4  0
 19 22  4  0
 20 28  1  0
 25 27  4  0
M  END
$$$$

 Created by Python create_sdf_string function

 28 30  0  0  0  0  0  0  0  0999 V2000
   11.4592   11.2893   18.7941 C   0  0  0  0  0  0  0  0  0  0  0  0
    3.4202    7.9009   20.3866 C   0  0  0  0  0  0  0  0  0  0  0  0
   13.5280   10.3522   19.3586 C   0  0  0  0  0  0  0  0  0  0  0  0
    9.6923    5.6468   22.7891 C   0  0  0  0  0  0  0  0  0  0  0  0
   11.7756   10.2554   20.8841 N   0  0  0  0  0  0  0  0  0  0  0  0
    8.9876   11.9370   19.8757 O   0  0  0  0  0  0  0  0  0  0  0  0
    6.0167    8.4478   21.1089 C   0  0  0  0  0  0  0  0  0  0  0  0
   11.0002   10.8890   20.0262 C   0  0  0  0  0  0  0  0  0  0  0  0
    2.1721    7.7393   20.0315 O   0  0  0  0  0  0  0  0  0  0  0  0
    9.1107   10.3880   21.3769 N   0  0  0  0  0  0  0  0  0  0  0  0
    3.9102    9.2008   20.3124 C   0  0  0  0  0  0  0  0  0  0  0  0
   12.7292   10.9960   18.4597 C   0  0  0  0  0  0  0  0  0  0  0  0
    9.3798    6.6793   23.6625 C   0  0  0  0  0  0  0  0  0  0  0  0
   14.7425   10.0739   19.0802 O   0  0  0  0  0  0  0  0  0  0  0  0
    5.1894    9.4673   20.7118 C   0  0  0  0  0  0  0  0  0  0  0  0
    7.3773    8.8224   21.4870 C   0  0  0  0  0  0  0  0  0  0  0  0
    8.4391    6.6439   21.0235 C   0  0  0  0  0  0  0  0  0  0  0  0
    9.6494   11.1353   20.4167 C   0  0  0  0  0  0  0  0  0  0  0  0
    8.1431    7.6829   21.9046 C   0  0  0  0  0  0  0  0  0  0  0  0
    7.7796   10.1314   21.5115 N   0  0  0  0  0  0  0  0  0  0  0  0
    9.2768    5.6183   21.4437 C   0  0  0  0  0  0  0  0  0  0  0  0
    8.6315    7.7322   23.1768 C   0  0  0  0  0  0  0  0  0  0  0  0
   13.0537    9.9821   20.5781 C   0  0  0  0  0  0  0  0  0  0  0  0
   10.3850    4.6575   23.2386 O   0  0  0  0  0  0  0  0  0  0  0  0
    4.2069    6.8450   20.7994 C   0  0  0  0  0  0  0  0  0  0  0  0
    3.0726   10.1043   19.8522 O   0  0  0  0  0  0  0  0  0  0  0  0
    5.5057    7.1196   21.1155 C   0  0  0  0  0  0  0  0  0  0  0  0
    7.0367   11.0229   21.9948 O   0  0  0  0  0  0  0  0  0  0  0  0
  1  8  4  0
  1 12  4  0
  2  9  1  0
  2 11  4  0
  2 25  4  0
  3 12  4  0
  3 14  1  0
  3 23  4  0
  4 13  4  0
  4 21  4  0
  4 24  1  0
  5  8  4  0
  5 23  4  0
  6 18  2  0
  7 15  4  0
  7 16  1  0
  7 27  4  0
  8 18  1  0
 10 18  1  0
 10 20  1  0
 11 15  4  0
 11 26  1  0
 13 22  4  0
 16 19  1  0
 16 20  2  0
 17 19  4  0
 17 21  4  0
 19 22  4  0
 20 28  1  0
 25 27  4  0
M  END
$$$$

 Created by Python create_sdf_string function

 28 30  0  0  0  0  0  0  0  0999 V2000
   11.4592   11.2893   18.7941 C   0  0  0  0  0  0  0  0  0  0  0  0
    3.4202    7.9009   20.3866 C   0  0  0  0  0  0  0  0  0  0  0  0
   13.5280   10.3522   19.3586 C   0  0  0  0  0  0  0  0  0  0  0  0
    9.6923    5.6468   22.7891 C   0  0  0  0  0  0  0  0  0  0  0  0
   11.7756   10.2554   20.8841 N   0  0  0  0  0  0  0  0  0  0  0  0
    8.9876   11.9370   19.8757 O   0  0  0  0  0  0  0  0  0  0  0  0
    6.0167    8.4478   21.1089 C   0  0  0  0  0  0  0  0  0  0  0  0
   11.0002   10.8890   20.0262 C   0  0  0  0  0  0  0  0  0  0  0  0
    2.1721    7.7393   20.0315 O   0  0  0  0  0  0  0  0  0  0  0  0
    9.1107   10.3880   21.3769 N   0  0  0  0  0  0  0  0  0  0  0  0
    3.9102    9.2008   20.3124 C   0  0  0  0  0  0  0  0  0  0  0  0
   12.7292   10.9960   18.4597 C   0  0  0  0  0  0  0  0  0  0  0  0
    9.3798    6.6793   23.6625 C   0  0  0  0  0  0  0  0  0  0  0  0
   14.7425   10.0739   19.0802 O   0  0  0  0  0  0  0  0  0  0  0  0
    5.1894    9.4673   20.7118 C   0  0  0  0  0  0  0  0  0  0  0  0
    7.3773    8.8224   21.4870 C   0  0  0  0  0  0  0  0  0  0  0  0
    8.4391    6.6439   21.0235 C   0  0  0  0  0  0  0  0  0  0  0  0
    9.6494   11.1353   20.4167 C   0  0  0  0  0  0  0  0  0  0  0  0
    8.1431    7.6829   21.9046 C   0  0  0  0  0  0  0  0  0  0  0  0
    7.7796   10.1314   21.5115 N   0  0  0  0  0  0  0  0  0  0  0  0
    9.2768    5.6183   21.4437 C   0  0  0  0  0  0  0  0  0  0  0  0
    8.6315    7.7322   23.1768 C   0  0  0  0  0  0  0  0  0  0  0  0
   13.0537    9.9821   20.5781 C   0  0  0  0  0  0  0  0  0  0  0  0
   10.3850    4.6575   23.2386 O   0  0  0  0  0  0  0  0  0  0  0  0
    4.2069    6.8450   20.7994 C   0  0  0  0  0  0  0  0  0  0  0  0
    3.0726   10.1043   19.8522 O   0  0  0  0  0  0  0  0  0  0  0  0
    5.5057    7.1196   21.1155 C   0  0  0  0  0  0  0  0  0  0  0  0
    7.0367   11.0229   21.9948 O   0  0  0  0  0  0  0  0  0  0  0  0
  1  8  4  0
  1 12  4  0
  2  9  1  0
  2 11  4  0
  2 25  4  0
  3 12  4  0
  3 14  1  0
  3 23  4  0
  4 13  4  0
  4 21  4  0
  4 24  1  0
  5  8  4  0
  5 23  4  0
  6 18  2  0
  7 15  4  0
  7 16  1  0
  7 27  4  0
  8 18  1  0
 10 18  1  0
 10 20  1  0
 11 15  4  0
 11 26  1  0
 13 22  4  0
 16 19  1  0
 16 20  2  0
 17 19  4  0
 17 21  4  0
 19 22  4  0
 20 28  1  0
 25 27  4  0
M  END
$$$$

 Created by Python create_sdf_string function

 28 30  0  0  0  0  0  0  0  0999 V2000
   11.4592   11.2893   18.7941 C   0  0  0  0  0  0  0  0  0  0  0  0
    3.4202    7.9009   20.3866 C   0  0  0  0  0  0  0  0  0  0  0  0
   13.5280   10.3522   19.3586 C   0  0  0  0  0  0  0  0  0  0  0  0
    9.6923    5.6468   22.7891 C   0  0  0  0  0  0  0  0  0  0  0  0
   11.7756   10.2554   20.8841 N   0  0  0  0  0  0  0  0  0  0  0  0
    8.9876   11.9370   19.8757 O   0  0  0  0  0  0  0  0  0  0  0  0
    6.0167    8.4478   21.1089 C   0  0  0  0  0  0  0  0  0  0  0  0
   11.0002   10.8890   20.0262 C   0  0  0  0  0  0  0  0  0  0  0  0
    2.1721    7.7393   20.0315 O   0  0  0  0  0  0  0  0  0  0  0  0
    9.1107   10.3880   21.3769 N   0  0  0  0  0  0  0  0  0  0  0  0
    3.9102    9.2008   20.3124 C   0  0  0  0  0  0  0  0  0  0  0  0
   12.7292   10.9960   18.4597 C   0  0  0  0  0  0  0  0  0  0  0  0
    9.3798    6.6793   23.6625 C   0  0  0  0  0  0  0  0  0  0  0  0
   14.7425   10.0739   19.0802 O   0  0  0  0  0  0  0  0  0  0  0  0
    5.1894    9.4673   20.7118 C   0  0  0  0  0  0  0  0  0  0  0  0
    7.3773    8.8224   21.4870 C   0  0  0  0  0  0  0  0  0  0  0  0
    8.4391    6.6439   21.0235 C   0  0  0  0  0  0  0  0  0  0  0  0
    9.6494   11.1353   20.4167 C   0  0  0  0  0  0  0  0  0  0  0  0
    8.1431    7.6829   21.9046 C   0  0  0  0  0  0  0  0  0  0  0  0
    7.7796   10.1314   21.5115 N   0  0  0  0  0  0  0  0  0  0  0  0
    9.2768    5.6183   21.4437 C   0  0  0  0  0  0  0  0  0  0  0  0
    8.6315    7.7322   23.1768 C   0  0  0  0  0  0  0  0  0  0  0  0
   13.0537    9.9821   20.5781 C   0  0  0  0  0  0  0  0  0  0  0  0
   10.3850    4.6575   23.2386 O   0  0  0  0  0  0  0  0  0  0  0  0
    4.2069    6.8450   20.7994 C   0  0  0  0  0  0  0  0  0  0  0  0
    3.0726   10.1043   19.8522 O   0  0  0  0  0  0  0  0  0  0  0  0
    5.5057    7.1196   21.1155 C   0  0  0  0  0  0  0  0  0  0  0  0
    7.0367   11.0229   21.9948 O   0  0  0  0  0  0  0  0  0  0  0  0
  1  8  4  0
  1 12  4  0
  2  9  1  0
  2 11  4  0
  2 25  4  0
  3 12  4  0
  3 14  1  0
  3 23  4  0
  4 13  4  0
  4 21  4  0
  4 24  1  0
  5  8  4  0
  5 23  4  0
  6 18  2  0
  7 15  4  0
  7 16  1  0
  7 27  4  0
  8 18  1  0
 10 18  1  0
 10 20  1  0
 11 15  4  0
 11 26  1  0
 13 22  4  0
 16 19  1  0
 16 20  2  0
 17 19  4  0
 17 21  4  0
 19 22  4  0
 20 28  1  0
 25 27  4  0
M  END
$$$$

 Created by Python create_sdf_string function

 28 30  0  0  0  0  0  0  0  0999 V2000
   11.4592   11.2893   18.7941 C   0  0  0  0  0  0  0  0  0  0  0  0
    3.4202    7.9009   20.3866 C   0  0  0  0  0  0  0  0  0  0  0  0
   13.5280   10.3522   19.3586 C   0  0  0  0  0  0  0  0  0  0  0  0
    9.6923    5.6468   22.7891 C   0  0  0  0  0  0  0  0  0  0  0  0
   11.7756   10.2554   20.8841 N   0  0  0  0  0  0  0  0  0  0  0  0
    8.9876   11.9370   19.8757 O   0  0  0  0  0  0  0  0  0  0  0  0
    6.0167    8.4478   21.1089 C   0  0  0  0  0  0  0  0  0  0  0  0
   11.0002   10.8890   20.0262 C   0  0  0  0  0  0  0  0  0  0  0  0
    2.1721    7.7393   20.0315 O   0  0  0  0  0  0  0  0  0  0  0  0
    9.1107   10.3880   21.3769 N   0  0  0  0  0  0  0  0  0  0  0  0
    3.9102    9.2008   20.3124 C   0  0  0  0  0  0  0  0  0  0  0  0
   12.7292   10.9960   18.4597 C   0  0  0  0  0  0  0  0  0  0  0  0
    9.3798    6.6793   23.6625 C   0  0  0  0  0  0  0  0  0  0  0  0
   14.7425   10.0739   19.0802 O   0  0  0  0  0  0  0  0  0  0  0  0
    5.1894    9.4673   20.7118 C   0  0  0  0  0  0  0  0  0  0  0  0
    7.3773    8.8224   21.4870 C   0  0  0  0  0  0  0  0  0  0  0  0
    8.4391    6.6439   21.0235 C   0  0  0  0  0  0  0  0  0  0  0  0
    9.6494   11.1353   20.4167 C   0  0  0  0  0  0  0  0  0  0  0  0
    8.1431    7.6829   21.9046 C   0  0  0  0  0  0  0  0  0  0  0  0
    7.7796   10.1314   21.5115 N   0  0  0  0  0  0  0  0  0  0  0  0
    9.2768    5.6183   21.4437 C   0  0  0  0  0  0  0  0  0  0  0  0
    8.6315    7.7322   23.1768 C   0  0  0  0  0  0  0  0  0  0  0  0
   13.0537    9.9821   20.5781 C   0  0  0  0  0  0  0  0  0  0  0  0
   10.3850    4.6575   23.2386 O   0  0  0  0  0  0  0  0  0  0  0  0
    4.2069    6.8450   20.7994 C   0  0  0  0  0  0  0  0  0  0  0  0
    3.0726   10.1043   19.8522 O   0  0  0  0  0  0  0  0  0  0  0  0
    5.5057    7.1196   21.1155 C   0  0  0  0  0  0  0  0  0  0  0  0
    7.0367   11.0229   21.9948 O   0  0  0  0  0  0  0  0  0  0  0  0
  1  8  4  0
  1 12  4  0
  2  9  1  0
  2 11  4  0
  2 25  4  0
  3 12  4  0
  3 14  1  0
  3 23  4  0
  4 13  4  0
  4 21  4  0
  4 24  1  0
  5  8  4  0
  5 23  4  0
  6 18  2  0
  7 15  4  0
  7 16  1  0
  7 27  4  0
  8 18  1  0
 10 18  1  0
 10 20  1  0
 11 15  4  0
 11 26  1  0
 13 22  4  0
 16 19  1  0
 16 20  2  0
 17 19  4  0
 17 21  4  0
 19 22  4  0
 20 28  1  0
 25 27  4  0
M  END
$$$$

 Created by Python create_sdf_string function

 28 30  0  0  0  0  0  0  0  0999 V2000
   11.4592   11.2893   18.7941 C   0  0  0  0  0  0  0  0  0  0  0  0
    3.4202    7.9009   20.3866 C   0  0  0  0  0  0  0  0  0  0  0  0
   13.5280   10.3522   19.3586 C   0  0  0  0  0  0  0  0  0  0  0  0
    9.6923    5.6468   22.7891 C   0  0  0  0  0  0  0  0  0  0  0  0
   11.7756   10.2554   20.8841 N   0  0  0  0  0  0  0  0  0  0  0  0
    8.9876   11.9370   19.8757 O   0  0  0  0  0  0  0  0  0  0  0  0
    6.0167    8.4478   21.1089 C   0  0  0  0  0  0  0  0  0  0  0  0
   11.0002   10.8890   20.0262 C   0  0  0  0  0  0  0  0  0  0  0  0
    2.1721    7.7393   20.0315 O   0  0  0  0  0  0  0  0  0  0  0  0
    9.1107   10.3880   21.3769 N   0  0  0  0  0  0  0  0  0  0  0  0
    3.9102    9.2008   20.3124 C   0  0  0  0  0  0  0  0  0  0  0  0
   12.7292   10.9960   18.4597 C   0  0  0  0  0  0  0  0  0  0  0  0
    9.3798    6.6793   23.6625 C   0  0  0  0  0  0  0  0  0  0  0  0
   14.7425   10.0739   19.0802 O   0  0  0  0  0  0  0  0  0  0  0  0
    5.1894    9.4673   20.7118 C   0  0  0  0  0  0  0  0  0  0  0  0
    7.3773    8.8224   21.4870 C   0  0  0  0  0  0  0  0  0  0  0  0
    8.4391    6.6439   21.0235 C   0  0  0  0  0  0  0  0  0  0  0  0
    9.6494   11.1353   20.4167 C   0  0  0  0  0  0  0  0  0  0  0  0
    8.1431    7.6829   21.9046 C   0  0  0  0  0  0  0  0  0  0  0  0
    7.7796   10.1314   21.5115 N   0  0  0  0  0  0  0  0  0  0  0  0
    9.2768    5.6183   21.4437 C   0  0  0  0  0  0  0  0  0  0  0  0
    8.6315    7.7322   23.1768 C   0  0  0  0  0  0  0  0  0  0  0  0
   13.0537    9.9821   20.5781 C   0  0  0  0  0  0  0  0  0  0  0  0
   10.3850    4.6575   23.2386 O   0  0  0  0  0  0  0  0  0  0  0  0
    4.2069    6.8450   20.7994 C   0  0  0  0  0  0  0  0  0  0  0  0
    3.0726   10.1043   19.8522 O   0  0  0  0  0  0  0  0  0  0  0  0
    5.5057    7.1196   21.1155 C   0  0  0  0  0  0  0  0  0  0  0  0
    7.0367   11.0229   21.9948 O   0  0  0  0  0  0  0  0  0  0  0  0
  1  8  4  0
  1 12  4  0
  2  9  1  0
  2 11  4  0
  2 25  4  0
  3 12  4  0
  3 14  1  0
  3 23  4  0
  4 13  4  0
  4 21  4  0
  4 24  1  0
  5  8  4  0
  5 23  4  0
  6 18  2  0
  7 15  4  0
  7 16  1  0
  7 27  4  0
  8 18  1  0
 10 18  1  0
 10 20  1  0
 11 15  4  0
 11 26  1  0
 13 22  4  0
 16 19  1  0
 16 20  2  0
 17 19  4  0
 17 21  4  0
 19 22  4  0
 20 28  1  0
 25 27  4  0
M  END
$$$$

 Created by Python create_sdf_string function

 28 30  0  0  0  0  0  0  0  0999 V2000
   11.4592   11.2893   18.7941 C   0  0  0  0  0  0  0  0  0  0  0  0
    3.4202    7.9009   20.3866 C   0  0  0  0  0  0  0  0  0  0  0  0
   13.5280   10.3522   19.3586 C   0  0  0  0  0  0  0  0  0  0  0  0
    9.6923    5.6468   22.7891 C   0  0  0  0  0  0  0  0  0  0  0  0
   11.7756   10.2554   20.8841 N   0  0  0  0  0  0  0  0  0  0  0  0
    8.9876   11.9370   19.8757 O   0  0  0  0  0  0  0  0  0  0  0  0
    6.0167    8.4478   21.1089 C   0  0  0  0  0  0  0  0  0  0  0  0
   11.0002   10.8890   20.0262 C   0  0  0  0  0  0  0  0  0  0  0  0
    2.1721    7.7393   20.0315 O   0  0  0  0  0  0  0  0  0  0  0  0
    9.1107   10.3880   21.3769 N   0  0  0  0  0  0  0  0  0  0  0  0
    3.9102    9.2008   20.3124 C   0  0  0  0  0  0  0  0  0  0  0  0
   12.7292   10.9960   18.4597 C   0  0  0  0  0  0  0  0  0  0  0  0
    9.3798    6.6793   23.6625 C   0  0  0  0  0  0  0  0  0  0  0  0
   14.7425   10.0739   19.0802 O   0  0  0  0  0  0  0  0  0  0  0  0
    5.1894    9.4673   20.7118 C   0  0  0  0  0  0  0  0  0  0  0  0
    7.3773    8.8224   21.4870 C   0  0  0  0  0  0  0  0  0  0  0  0
    8.4391    6.6439   21.0235 C   0  0  0  0  0  0  0  0  0  0  0  0
    9.6494   11.1353   20.4167 C   0  0  0  0  0  0  0  0  0  0  0  0
    8.1431    7.6829   21.9046 C   0  0  0  0  0  0  0  0  0  0  0  0
    7.7796   10.1314   21.5115 N   0  0  0  0  0  0  0  0  0  0  0  0
    9.2768    5.6183   21.4437 C   0  0  0  0  0  0  0  0  0  0  0  0
    8.6315    7.7322   23.1768 C   0  0  0  0  0  0  0  0  0  0  0  0
   13.0537    9.9821   20.5781 C   0  0  0  0  0  0  0  0  0  0  0  0
   10.3850    4.6575   23.2386 O   0  0  0  0  0  0  0  0  0  0  0  0
    4.2069    6.8450   20.7994 C   0  0  0  0  0  0  0  0  0  0  0  0
    3.0726   10.1043   19.8522 O   0  0  0  0  0  0  0  0  0  0  0  0
    5.5057    7.1196   21.1155 C   0  0  0  0  0  0  0  0  0  0  0  0
    7.0367   11.0229   21.9948 O   0  0  0  0  0  0  0  0  0  0  0  0
  1  8  4  0
  1 12  4  0
  2  9  1  0
  2 11  4  0
  2 25  4  0
  3 12  4  0
  3 14  1  0
  3 23  4  0
  4 13  4  0
  4 21  4  0
  4 24  1  0
  5  8  4  0
  5 23  4  0
  6 18  2  0
  7 15  4  0
  7 16  1  0
  7 27  4  0
  8 18  1  0
 10 18  1  0
 10 20  1  0
 11 15  4  0
 11 26  1  0
 13 22  4  0
 16 19  1  0
 16 20  2  0
 17 19  4  0
 17 21  4  0
 19 22  4  0
 20 28  1  0
 25 27  4  0
M  END
$$$$

 Created by Python create_sdf_string function

 28 30  0  0  0  0  0  0  0  0999 V2000
   11.4592   11.2893   18.7941 C   0  0  0  0  0  0  0  0  0  0  0  0
    3.4202    7.9009   20.3866 C   0  0  0  0  0  0  0  0  0  0  0  0
   13.5280   10.3522   19.3586 C   0  0  0  0  0  0  0  0  0  0  0  0
    9.6923    5.6468   22.7891 C   0  0  0  0  0  0  0  0  0  0  0  0
   11.7756   10.2554   20.8841 N   0  0  0  0  0  0  0  0  0  0  0  0
    8.9876   11.9370   19.8757 O   0  0  0  0  0  0  0  0  0  0  0  0
    6.0167    8.4478   21.1089 C   0  0  0  0  0  0  0  0  0  0  0  0
   11.0002   10.8890   20.0262 C   0  0  0  0  0  0  0  0  0  0  0  0
    2.1721    7.7393   20.0315 O   0  0  0  0  0  0  0  0  0  0  0  0
    9.1107   10.3880   21.3769 N   0  0  0  0  0  0  0  0  0  0  0  0
    3.9102    9.2008   20.3124 C   0  0  0  0  0  0  0  0  0  0  0  0
   12.7292   10.9960   18.4597 C   0  0  0  0  0  0  0  0  0  0  0  0
    9.3798    6.6793   23.6625 C   0  0  0  0  0  0  0  0  0  0  0  0
   14.7425   10.0739   19.0802 O   0  0  0  0  0  0  0  0  0  0  0  0
    5.1894    9.4673   20.7118 C   0  0  0  0  0  0  0  0  0  0  0  0
    7.3773    8.8224   21.4870 C   0  0  0  0  0  0  0  0  0  0  0  0
    8.4391    6.6439   21.0235 C   0  0  0  0  0  0  0  0  0  0  0  0
    9.6494   11.1353   20.4167 C   0  0  0  0  0  0  0  0  0  0  0  0
    8.1431    7.6829   21.9046 C   0  0  0  0  0  0  0  0  0  0  0  0
    7.7796   10.1314   21.5115 N   0  0  0  0  0  0  0  0  0  0  0  0
    9.2768    5.6183   21.4437 C   0  0  0  0  0  0  0  0  0  0  0  0
    8.6315    7.7322   23.1768 C   0  0  0  0  0  0  0  0  0  0  0  0
   13.0537    9.9821   20.5781 C   0  0  0  0  0  0  0  0  0  0  0  0
   10.3850    4.6575   23.2386 O   0  0  0  0  0  0  0  0  0  0  0  0
    4.2069    6.8450   20.7994 C   0  0  0  0  0  0  0  0  0  0  0  0
    3.0726   10.1043   19.8522 O   0  0  0  0  0  0  0  0  0  0  0  0
    5.5057    7.1196   21.1155 C   0  0  0  0  0  0  0  0  0  0  0  0
    7.0367   11.0229   21.9948 O   0  0  0  0  0  0  0  0  0  0  0  0
  1  8  4  0
  1 12  4  0
  2  9  1  0
  2 11  4  0
  2 25  4  0
  3 12  4  0
  3 14  1  0
  3 23  4  0
  4 13  4  0
  4 21  4  0
  4 24  1  0
  5  8  4  0
  5 23  4  0
  6 18  2  0
  7 15  4  0
  7 16  1  0
  7 27  4  0
  8 18  1  0
 10 18  1  0
 10 20  1  0
 11 15  4  0
 11 26  1  0
 13 22  4  0
 16 19  1  0
 16 20  2  0
 17 19  4  0
 17 21  4  0
 19 22  4  0
 20 28  1  0
 25 27  4  0
M  END
$$$$

 Created by Python create_sdf_string function

 28 30  0  0  0  0  0  0  0  0999 V2000
   11.4592   11.2893   18.7941 C   0  0  0  0  0  0  0  0  0  0  0  0
    3.4202    7.9009   20.3866 C   0  0  0  0  0  0  0  0  0  0  0  0
   13.5280   10.3522   19.3586 C   0  0  0  0  0  0  0  0  0  0  0  0
    9.6923    5.6468   22.7891 C   0  0  0  0  0  0  0  0  0  0  0  0
   11.7756   10.2554   20.8841 N   0  0  0  0  0  0  0  0  0  0  0  0
    8.9876   11.9370   19.8757 O   0  0  0  0  0  0  0  0  0  0  0  0
    6.0167    8.4478   21.1089 C   0  0  0  0  0  0  0  0  0  0  0  0
   11.0002   10.8890   20.0262 C   0  0  0  0  0  0  0  0  0  0  0  0
    2.1721    7.7393   20.0315 O   0  0  0  0  0  0  0  0  0  0  0  0
    9.1107   10.3880   21.3769 N   0  0  0  0  0  0  0  0  0  0  0  0
    3.9102    9.2008   20.3124 C   0  0  0  0  0  0  0  0  0  0  0  0
   12.7292   10.9960   18.4597 C   0  0  0  0  0  0  0  0  0  0  0  0
    9.3798    6.6793   23.6625 C   0  0  0  0  0  0  0  0  0  0  0  0
   14.7425   10.0739   19.0802 O   0  0  0  0  0  0  0  0  0  0  0  0
    5.1894    9.4673   20.7118 C   0  0  0  0  0  0  0  0  0  0  0  0
    7.3773    8.8224   21.4870 C   0  0  0  0  0  0  0  0  0  0  0  0
    8.4391    6.6439   21.0235 C   0  0  0  0  0  0  0  0  0  0  0  0
    9.6494   11.1353   20.4167 C   0  0  0  0  0  0  0  0  0  0  0  0
    8.1431    7.6829   21.9046 C   0  0  0  0  0  0  0  0  0  0  0  0
    7.7796   10.1314   21.5115 N   0  0  0  0  0  0  0  0  0  0  0  0
    9.2768    5.6183   21.4437 C   0  0  0  0  0  0  0  0  0  0  0  0
    8.6315    7.7322   23.1768 C   0  0  0  0  0  0  0  0  0  0  0  0
   13.0537    9.9821   20.5781 C   0  0  0  0  0  0  0  0  0  0  0  0
   10.3850    4.6575   23.2386 O   0  0  0  0  0  0  0  0  0  0  0  0
    4.2069    6.8450   20.7994 C   0  0  0  0  0  0  0  0  0  0  0  0
    3.0726   10.1043   19.8522 O   0  0  0  0  0  0  0  0  0  0  0  0
    5.5057    7.1196   21.1155 C   0  0  0  0  0  0  0  0  0  0  0  0
    7.0367   11.0229   21.9948 O   0  0  0  0  0  0  0  0  0  0  0  0
  1  8  4  0
  1 12  4  0
  2  9  1  0
  2 11  4  0
  2 25  4  0
  3 12  4  0
  3 14  1  0
  3 23  4  0
  4 13  4  0
  4 21  4  0
  4 24  1  0
  5  8  4  0
  5 23  4  0
  6 18  2  0
  7 15  4  0
  7 16  1  0
  7 27  4  0
  8 18  1  0
 10 18  1  0
 10 20  1  0
 11 15  4  0
 11 26  1  0
 13 22  4  0
 16 19  1  0
 16 20  2  0
 17 19  4  0
 17 21  4  0
 19 22  4  0
 20 28  1  0
 25 27  4  0
M  END
$$$$

 Created by Python create_sdf_string function

 28 30  0  0  0  0  0  0  0  0999 V2000
   11.4592   11.2893   18.7941 C   0  0  0  0  0  0  0  0  0  0  0  0
    3.4202    7.9009   20.3866 C   0  0  0  0  0  0  0  0  0  0  0  0
   13.5280   10.3522   19.3586 C   0  0  0  0  0  0  0  0  0  0  0  0
    9.6923    5.6468   22.7891 C   0  0  0  0  0  0  0  0  0  0  0  0
   11.7756   10.2554   20.8841 N   0  0  0  0  0  0  0  0  0  0  0  0
    8.9876   11.9370   19.8757 O   0  0  0  0  0  0  0  0  0  0  0  0
    6.0167    8.4478   21.1089 C   0  0  0  0  0  0  0  0  0  0  0  0
   11.0002   10.8890   20.0262 C   0  0  0  0  0  0  0  0  0  0  0  0
    2.1721    7.7393   20.0315 O   0  0  0  0  0  0  0  0  0  0  0  0
    9.1107   10.3880   21.3769 N   0  0  0  0  0  0  0  0  0  0  0  0
    3.9102    9.2008   20.3124 C   0  0  0  0  0  0  0  0  0  0  0  0
   12.7292   10.9960   18.4597 C   0  0  0  0  0  0  0  0  0  0  0  0
    9.3798    6.6793   23.6625 C   0  0  0  0  0  0  0  0  0  0  0  0
   14.7425   10.0739   19.0802 O   0  0  0  0  0  0  0  0  0  0  0  0
    5.1894    9.4673   20.7118 C   0  0  0  0  0  0  0  0  0  0  0  0
    7.3773    8.8224   21.4870 C   0  0  0  0  0  0  0  0  0  0  0  0
    8.4391    6.6439   21.0235 C   0  0  0  0  0  0  0  0  0  0  0  0
    9.6494   11.1353   20.4167 C   0  0  0  0  0  0  0  0  0  0  0  0
    8.1431    7.6829   21.9046 C   0  0  0  0  0  0  0  0  0  0  0  0
    7.7796   10.1314   21.5115 N   0  0  0  0  0  0  0  0  0  0  0  0
    9.2768    5.6183   21.4437 C   0  0  0  0  0  0  0  0  0  0  0  0
    8.6315    7.7322   23.1768 C   0  0  0  0  0  0  0  0  0  0  0  0
   13.0537    9.9821   20.5781 C   0  0  0  0  0  0  0  0  0  0  0  0
   10.3850    4.6575   23.2386 O   0  0  0  0  0  0  0  0  0  0  0  0
    4.2069    6.8450   20.7994 C   0  0  0  0  0  0  0  0  0  0  0  0
    3.0726   10.1043   19.8522 O   0  0  0  0  0  0  0  0  0  0  0  0
    5.5057    7.1196   21.1155 C   0  0  0  0  0  0  0  0  0  0  0  0
    7.0367   11.0229   21.9948 O   0  0  0  0  0  0  0  0  0  0  0  0
  1  8  4  0
  1 12  4  0
  2  9  1  0
  2 11  4  0
  2 25  4  0
  3 12  4  0
  3 14  1  0
  3 23  4  0
  4 13  4  0
  4 21  4  0
  4 24  1  0
  5  8  4  0
  5 23  4  0
  6 18  2  0
  7 15  4  0
  7 16  1  0
  7 27  4  0
  8 18  1  0
 10 18  1  0
 10 20  1  0
 11 15  4  0
 11 26  1  0
 13 22  4  0
 16 19  1  0
 16 20  2  0
 17 19  4  0
 17 21  4  0
 19 22  4  0
 20 28  1  0
 25 27  4  0
M  END
$$$$

 Created by Python create_sdf_string function

 28 30  0  0  0  0  0  0  0  0999 V2000
   11.4592   11.2893   18.7941 C   0  0  0  0  0  0  0  0  0  0  0  0
    3.4202    7.9009   20.3866 C   0  0  0  0  0  0  0  0  0  0  0  0
   13.5280   10.3522   19.3586 C   0  0  0  0  0  0  0  0  0  0  0  0
    9.6923    5.6468   22.7891 C   0  0  0  0  0  0  0  0  0  0  0  0
   11.7756   10.2554   20.8841 N   0  0  0  0  0  0  0  0  0  0  0  0
    8.9876   11.9370   19.8757 O   0  0  0  0  0  0  0  0  0  0  0  0
    6.0167    8.4478   21.1089 C   0  0  0  0  0  0  0  0  0  0  0  0
   11.0002   10.8890   20.0262 C   0  0  0  0  0  0  0  0  0  0  0  0
    2.1721    7.7393   20.0315 O   0  0  0  0  0  0  0  0  0  0  0  0
    9.1107   10.3880   21.3769 N   0  0  0  0  0  0  0  0  0  0  0  0
    3.9102    9.2008   20.3124 C   0  0  0  0  0  0  0  0  0  0  0  0
   12.7292   10.9960   18.4597 C   0  0  0  0  0  0  0  0  0  0  0  0
    9.3798    6.6793   23.6625 C   0  0  0  0  0  0  0  0  0  0  0  0
   14.7425   10.0739   19.0802 O   0  0  0  0  0  0  0  0  0  0  0  0
    5.1894    9.4673   20.7118 C   0  0  0  0  0  0  0  0  0  0  0  0
    7.3773    8.8224   21.4870 C   0  0  0  0  0  0  0  0  0  0  0  0
    8.4391    6.6439   21.0235 C   0  0  0  0  0  0  0  0  0  0  0  0
    9.6494   11.1353   20.4167 C   0  0  0  0  0  0  0  0  0  0  0  0
    8.1431    7.6829   21.9046 C   0  0  0  0  0  0  0  0  0  0  0  0
    7.7796   10.1314   21.5115 N   0  0  0  0  0  0  0  0  0  0  0  0
    9.2768    5.6183   21.4437 C   0  0  0  0  0  0  0  0  0  0  0  0
    8.6315    7.7322   23.1768 C   0  0  0  0  0  0  0  0  0  0  0  0
   13.0537    9.9821   20.5781 C   0  0  0  0  0  0  0  0  0  0  0  0
   10.3850    4.6575   23.2386 O   0  0  0  0  0  0  0  0  0  0  0  0
    4.2069    6.8450   20.7994 C   0  0  0  0  0  0  0  0  0  0  0  0
    3.0726   10.1043   19.8522 O   0  0  0  0  0  0  0  0  0  0  0  0
    5.5057    7.1196   21.1155 C   0  0  0  0  0  0  0  0  0  0  0  0
    7.0367   11.0229   21.9948 O   0  0  0  0  0  0  0  0  0  0  0  0
  1  8  4  0
  1 12  4  0
  2  9  1  0
  2 11  4  0
  2 25  4  0
  3 12  4  0
  3 14  1  0
  3 23  4  0
  4 13  4  0
  4 21  4  0
  4 24  1  0
  5  8  4  0
  5 23  4  0
  6 18  2  0
  7 15  4  0
  7 16  1  0
  7 27  4  0
  8 18  1  0
 10 18  1  0
 10 20  1  0
 11 15  4  0
 11 26  1  0
 13 22  4  0
 16 19  1  0
 16 20  2  0
 17 19  4  0
 17 21  4  0
 19 22  4  0
 20 28  1  0
 25 27  4  0
M  END
$$$$

 Created by Python create_sdf_string function

 28 30  0  0  0  0  0  0  0  0999 V2000
   11.4592   11.2893   18.7941 C   0  0  0  0  0  0  0  0  0  0  0  0
    3.4202    7.9009   20.3866 C   0  0  0  0  0  0  0  0  0  0  0  0
   13.5280   10.3522   19.3586 C   0  0  0  0  0  0  0  0  0  0  0  0
    9.6923    5.6468   22.7891 C   0  0  0  0  0  0  0  0  0  0  0  0
   11.7756   10.2554   20.8841 N   0  0  0  0  0  0  0  0  0  0  0  0
    8.9876   11.9370   19.8757 O   0  0  0  0  0  0  0  0  0  0  0  0
    6.0167    8.4478   21.1089 C   0  0  0  0  0  0  0  0  0  0  0  0
   11.0002   10.8890   20.0262 C   0  0  0  0  0  0  0  0  0  0  0  0
    2.1721    7.7393   20.0315 O   0  0  0  0  0  0  0  0  0  0  0  0
    9.1107   10.3880   21.3769 N   0  0  0  0  0  0  0  0  0  0  0  0
    3.9102    9.2008   20.3124 C   0  0  0  0  0  0  0  0  0  0  0  0
   12.7292   10.9960   18.4597 C   0  0  0  0  0  0  0  0  0  0  0  0
    9.3798    6.6793   23.6625 C   0  0  0  0  0  0  0  0  0  0  0  0
   14.7425   10.0739   19.0802 O   0  0  0  0  0  0  0  0  0  0  0  0
    5.1894    9.4673   20.7118 C   0  0  0  0  0  0  0  0  0  0  0  0
    7.3773    8.8224   21.4870 C   0  0  0  0  0  0  0  0  0  0  0  0
    8.4391    6.6439   21.0235 C   0  0  0  0  0  0  0  0  0  0  0  0
    9.6494   11.1353   20.4167 C   0  0  0  0  0  0  0  0  0  0  0  0
    8.1431    7.6829   21.9046 C   0  0  0  0  0  0  0  0  0  0  0  0
    7.7796   10.1314   21.5115 N   0  0  0  0  0  0  0  0  0  0  0  0
    9.2768    5.6183   21.4437 C   0  0  0  0  0  0  0  0  0  0  0  0
    8.6315    7.7322   23.1768 C   0  0  0  0  0  0  0  0  0  0  0  0
   13.0537    9.9821   20.5781 C   0  0  0  0  0  0  0  0  0  0  0  0
   10.3850    4.6575   23.2386 O   0  0  0  0  0  0  0  0  0  0  0  0
    4.2069    6.8450   20.7994 C   0  0  0  0  0  0  0  0  0  0  0  0
    3.0726   10.1043   19.8522 O   0  0  0  0  0  0  0  0  0  0  0  0
    5.5057    7.1196   21.1155 C   0  0  0  0  0  0  0  0  0  0  0  0
    7.0367   11.0229   21.9948 O   0  0  0  0  0  0  0  0  0  0  0  0
  1  8  4  0
  1 12  4  0
  2  9  1  0
  2 11  4  0
  2 25  4  0
  3 12  4  0
  3 14  1  0
  3 23  4  0
  4 13  4  0
  4 21  4  0
  4 24  1  0
  5  8  4  0
  5 23  4  0
  6 18  2  0
  7 15  4  0
  7 16  1  0
  7 27  4  0
  8 18  1  0
 10 18  1  0
 10 20  1  0
 11 15  4  0
 11 26  1  0
 13 22  4  0
 16 19  1  0
 16 20  2  0
 17 19  4  0
 17 21  4  0
 19 22  4  0
 20 28  1  0
 25 27  4  0
M  END
$$$$

 Created by Python create_sdf_string function

 28 30  0  0  0  0  0  0  0  0999 V2000
   11.4592   11.2893   18.7941 C   0  0  0  0  0  0  0  0  0  0  0  0
    3.4202    7.9009   20.3866 C   0  0  0  0  0  0  0  0  0  0  0  0
   13.5280   10.3522   19.3586 C   0  0  0  0  0  0  0  0  0  0  0  0
    9.6923    5.6468   22.7891 C   0  0  0  0  0  0  0  0  0  0  0  0
   11.7756   10.2554   20.8841 N   0  0  0  0  0  0  0  0  0  0  0  0
    8.9876   11.9370   19.8757 O   0  0  0  0  0  0  0  0  0  0  0  0
    6.0167    8.4478   21.1089 C   0  0  0  0  0  0  0  0  0  0  0  0
   11.0002   10.8890   20.0262 C   0  0  0  0  0  0  0  0  0  0  0  0
    2.1721    7.7393   20.0315 O   0  0  0  0  0  0  0  0  0  0  0  0
    9.1107   10.3880   21.3769 N   0  0  0  0  0  0  0  0  0  0  0  0
    3.9102    9.2008   20.3124 C   0  0  0  0  0  0  0  0  0  0  0  0
   12.7292   10.9960   18.4597 C   0  0  0  0  0  0  0  0  0  0  0  0
    9.3798    6.6793   23.6625 C   0  0  0  0  0  0  0  0  0  0  0  0
   14.7425   10.0739   19.0802 O   0  0  0  0  0  0  0  0  0  0  0  0
    5.1894    9.4673   20.7118 C   0  0  0  0  0  0  0  0  0  0  0  0
    7.3773    8.8224   21.4870 C   0  0  0  0  0  0  0  0  0  0  0  0
    8.4391    6.6439   21.0235 C   0  0  0  0  0  0  0  0  0  0  0  0
    9.6494   11.1353   20.4167 C   0  0  0  0  0  0  0  0  0  0  0  0
    8.1431    7.6829   21.9046 C   0  0  0  0  0  0  0  0  0  0  0  0
    7.7796   10.1314   21.5115 N   0  0  0  0  0  0  0  0  0  0  0  0
    9.2768    5.6183   21.4437 C   0  0  0  0  0  0  0  0  0  0  0  0
    8.6315    7.7322   23.1768 C   0  0  0  0  0  0  0  0  0  0  0  0
   13.0537    9.9821   20.5781 C   0  0  0  0  0  0  0  0  0  0  0  0
   10.3850    4.6575   23.2386 O   0  0  0  0  0  0  0  0  0  0  0  0
    4.2069    6.8450   20.7994 C   0  0  0  0  0  0  0  0  0  0  0  0
    3.0726   10.1043   19.8522 O   0  0  0  0  0  0  0  0  0  0  0  0
    5.5057    7.1196   21.1155 C   0  0  0  0  0  0  0  0  0  0  0  0
    7.0367   11.0229   21.9948 O   0  0  0  0  0  0  0  0  0  0  0  0
  1  8  4  0
  1 12  4  0
  2  9  1  0
  2 11  4  0
  2 25  4  0
  3 12  4  0
  3 14  1  0
  3 23  4  0
  4 13  4  0
  4 21  4  0
  4 24  1  0
  5  8  4  0
  5 23  4  0
  6 18  2  0
  7 15  4  0
  7 16  1  0
  7 27  4  0
  8 18  1  0
 10 18  1  0
 10 20  1  0
 11 15  4  0
 11 26  1  0
 13 22  4  0
 16 19  1  0
 16 20  2  0
 17 19  4  0
 17 21  4  0
 19 22  4  0
 20 28  1  0
 25 27  4  0
M  END
$$$$

 Created by Python create_sdf_string function

 28 30  0  0  0  0  0  0  0  0999 V2000
   11.4592   11.2893   18.7941 C   0  0  0  0  0  0  0  0  0  0  0  0
    3.4202    7.9009   20.3866 C   0  0  0  0  0  0  0  0  0  0  0  0
   13.5280   10.3522   19.3586 C   0  0  0  0  0  0  0  0  0  0  0  0
    9.6923    5.6468   22.7891 C   0  0  0  0  0  0  0  0  0  0  0  0
   11.7756   10.2554   20.8841 N   0  0  0  0  0  0  0  0  0  0  0  0
    8.9876   11.9370   19.8757 O   0  0  0  0  0  0  0  0  0  0  0  0
    6.0167    8.4478   21.1089 C   0  0  0  0  0  0  0  0  0  0  0  0
   11.0002   10.8890   20.0262 C   0  0  0  0  0  0  0  0  0  0  0  0
    2.1721    7.7393   20.0315 O   0  0  0  0  0  0  0  0  0  0  0  0
    9.1107   10.3880   21.3769 N   0  0  0  0  0  0  0  0  0  0  0  0
    3.9102    9.2008   20.3124 C   0  0  0  0  0  0  0  0  0  0  0  0
   12.7292   10.9960   18.4597 C   0  0  0  0  0  0  0  0  0  0  0  0
    9.3798    6.6793   23.6625 C   0  0  0  0  0  0  0  0  0  0  0  0
   14.7425   10.0739   19.0802 O   0  0  0  0  0  0  0  0  0  0  0  0
    5.1894    9.4673   20.7118 C   0  0  0  0  0  0  0  0  0  0  0  0
    7.3773    8.8224   21.4870 C   0  0  0  0  0  0  0  0  0  0  0  0
    8.4391    6.6439   21.0235 C   0  0  0  0  0  0  0  0  0  0  0  0
    9.6494   11.1353   20.4167 C   0  0  0  0  0  0  0  0  0  0  0  0
    8.1431    7.6829   21.9046 C   0  0  0  0  0  0  0  0  0  0  0  0
    7.7796   10.1314   21.5115 N   0  0  0  0  0  0  0  0  0  0  0  0
    9.2768    5.6183   21.4437 C   0  0  0  0  0  0  0  0  0  0  0  0
    8.6315    7.7322   23.1768 C   0  0  0  0  0  0  0  0  0  0  0  0
   13.0537    9.9821   20.5781 C   0  0  0  0  0  0  0  0  0  0  0  0
   10.3850    4.6575   23.2386 O   0  0  0  0  0  0  0  0  0  0  0  0
    4.2069    6.8450   20.7994 C   0  0  0  0  0  0  0  0  0  0  0  0
    3.0726   10.1043   19.8522 O   0  0  0  0  0  0  0  0  0  0  0  0
    5.5057    7.1196   21.1155 C   0  0  0  0  0  0  0  0  0  0  0  0
    7.0367   11.0229   21.9948 O   0  0  0  0  0  0  0  0  0  0  0  0
  1  8  4  0
  1 12  4  0
  2  9  1  0
  2 11  4  0
  2 25  4  0
  3 12  4  0
  3 14  1  0
  3 23  4  0
  4 13  4  0
  4 21  4  0
  4 24  1  0
  5  8  4  0
  5 23  4  0
  6 18  2  0
  7 15  4  0
  7 16  1  0
  7 27  4  0
  8 18  1  0
 10 18  1  0
 10 20  1  0
 11 15  4  0
 11 26  1  0
 13 22  4  0
 16 19  1  0
 16 20  2  0
 17 19  4  0
 17 21  4  0
 19 22  4  0
 20 28  1  0
 25 27  4  0
M  END
$$$$

 Created by Python create_sdf_string function

 28 30  0  0  0  0  0  0  0  0999 V2000
   11.4592   11.2893   18.7941 C   0  0  0  0  0  0  0  0  0  0  0  0
    3.4202    7.9009   20.3866 C   0  0  0  0  0  0  0  0  0  0  0  0
   13.5280   10.3522   19.3586 C   0  0  0  0  0  0  0  0  0  0  0  0
    9.6923    5.6468   22.7891 C   0  0  0  0  0  0  0  0  0  0  0  0
   11.7756   10.2554   20.8841 N   0  0  0  0  0  0  0  0  0  0  0  0
    8.9876   11.9370   19.8757 O   0  0  0  0  0  0  0  0  0  0  0  0
    6.0167    8.4478   21.1089 C   0  0  0  0  0  0  0  0  0  0  0  0
   11.0002   10.8890   20.0262 C   0  0  0  0  0  0  0  0  0  0  0  0
    2.1721    7.7393   20.0315 O   0  0  0  0  0  0  0  0  0  0  0  0
    9.1107   10.3880   21.3769 N   0  0  0  0  0  0  0  0  0  0  0  0
    3.9102    9.2008   20.3124 C   0  0  0  0  0  0  0  0  0  0  0  0
   12.7292   10.9960   18.4597 C   0  0  0  0  0  0  0  0  0  0  0  0
    9.3798    6.6793   23.6625 C   0  0  0  0  0  0  0  0  0  0  0  0
   14.7425   10.0739   19.0802 O   0  0  0  0  0  0  0  0  0  0  0  0
    5.1894    9.4673   20.7118 C   0  0  0  0  0  0  0  0  0  0  0  0
    7.3773    8.8224   21.4870 C   0  0  0  0  0  0  0  0  0  0  0  0
    8.4391    6.6439   21.0235 C   0  0  0  0  0  0  0  0  0  0  0  0
    9.6494   11.1353   20.4167 C   0  0  0  0  0  0  0  0  0  0  0  0
    8.1431    7.6829   21.9046 C   0  0  0  0  0  0  0  0  0  0  0  0
    7.7796   10.1314   21.5115 N   0  0  0  0  0  0  0  0  0  0  0  0
    9.2768    5.6183   21.4437 C   0  0  0  0  0  0  0  0  0  0  0  0
    8.6315    7.7322   23.1768 C   0  0  0  0  0  0  0  0  0  0  0  0
   13.0537    9.9821   20.5781 C   0  0  0  0  0  0  0  0  0  0  0  0
   10.3850    4.6575   23.2386 O   0  0  0  0  0  0  0  0  0  0  0  0
    4.2069    6.8450   20.7994 C   0  0  0  0  0  0  0  0  0  0  0  0
    3.0726   10.1043   19.8522 O   0  0  0  0  0  0  0  0  0  0  0  0
    5.5057    7.1196   21.1155 C   0  0  0  0  0  0  0  0  0  0  0  0
    7.0367   11.0229   21.9948 O   0  0  0  0  0  0  0  0  0  0  0  0
  1  8  4  0
  1 12  4  0
  2  9  1  0
  2 11  4  0
  2 25  4  0
  3 12  4  0
  3 14  1  0
  3 23  4  0
  4 13  4  0
  4 21  4  0
  4 24  1  0
  5  8  4  0
  5 23  4  0
  6 18  2  0
  7 15  4  0
  7 16  1  0
  7 27  4  0
  8 18  1  0
 10 18  1  0
 10 20  1  0
 11 15  4  0
 11 26  1  0
 13 22  4  0
 16 19  1  0
 16 20  2  0
 17 19  4  0
 17 21  4  0
 19 22  4  0
 20 28  1  0
 25 27  4  0
M  END
$$$$

 Created by Python create_sdf_string function

 28 30  0  0  0  0  0  0  0  0999 V2000
   11.4592   11.2893   18.7941 C   0  0  0  0  0  0  0  0  0  0  0  0
    3.4202    7.9009   20.3866 C   0  0  0  0  0  0  0  0  0  0  0  0
   13.5280   10.3522   19.3586 C   0  0  0  0  0  0  0  0  0  0  0  0
    9.6923    5.6468   22.7891 C   0  0  0  0  0  0  0  0  0  0  0  0
   11.7756   10.2554   20.8841 N   0  0  0  0  0  0  0  0  0  0  0  0
    8.9876   11.9370   19.8757 O   0  0  0  0  0  0  0  0  0  0  0  0
    6.0167    8.4478   21.1089 C   0  0  0  0  0  0  0  0  0  0  0  0
   11.0002   10.8890   20.0262 C   0  0  0  0  0  0  0  0  0  0  0  0
    2.1721    7.7393   20.0315 O   0  0  0  0  0  0  0  0  0  0  0  0
    9.1107   10.3880   21.3769 N   0  0  0  0  0  0  0  0  0  0  0  0
    3.9102    9.2008   20.3124 C   0  0  0  0  0  0  0  0  0  0  0  0
   12.7292   10.9960   18.4597 C   0  0  0  0  0  0  0  0  0  0  0  0
    9.3798    6.6793   23.6625 C   0  0  0  0  0  0  0  0  0  0  0  0
   14.7425   10.0739   19.0802 O   0  0  0  0  0  0  0  0  0  0  0  0
    5.1894    9.4673   20.7118 C   0  0  0  0  0  0  0  0  0  0  0  0
    7.3773    8.8224   21.4870 C   0  0  0  0  0  0  0  0  0  0  0  0
    8.4391    6.6439   21.0235 C   0  0  0  0  0  0  0  0  0  0  0  0
    9.6494   11.1353   20.4167 C   0  0  0  0  0  0  0  0  0  0  0  0
    8.1431    7.6829   21.9046 C   0  0  0  0  0  0  0  0  0  0  0  0
    7.7796   10.1314   21.5115 N   0  0  0  0  0  0  0  0  0  0  0  0
    9.2768    5.6183   21.4437 C   0  0  0  0  0  0  0  0  0  0  0  0
    8.6315    7.7322   23.1768 C   0  0  0  0  0  0  0  0  0  0  0  0
   13.0537    9.9821   20.5781 C   0  0  0  0  0  0  0  0  0  0  0  0
   10.3850    4.6575   23.2386 O   0  0  0  0  0  0  0  0  0  0  0  0
    4.2069    6.8450   20.7994 C   0  0  0  0  0  0  0  0  0  0  0  0
    3.0726   10.1043   19.8522 O   0  0  0  0  0  0  0  0  0  0  0  0
    5.5057    7.1196   21.1155 C   0  0  0  0  0  0  0  0  0  0  0  0
    7.0367   11.0229   21.9948 O   0  0  0  0  0  0  0  0  0  0  0  0
  1  8  4  0
  1 12  4  0
  2  9  1  0
  2 11  4  0
  2 25  4  0
  3 12  4  0
  3 14  1  0
  3 23  4  0
  4 13  4  0
  4 21  4  0
  4 24  1  0
  5  8  4  0
  5 23  4  0
  6 18  2  0
  7 15  4  0
  7 16  1  0
  7 27  4  0
  8 18  1  0
 10 18  1  0
 10 20  1  0
 11 15  4  0
 11 26  1  0
 13 22  4  0
 16 19  1  0
 16 20  2  0
 17 19  4  0
 17 21  4  0
 19 22  4  0
 20 28  1  0
 25 27  4  0
M  END
$$$$

 Created by Python create_sdf_string function

 28 30  0  0  0  0  0  0  0  0999 V2000
   11.4592   11.2893   18.7941 C   0  0  0  0  0  0  0  0  0  0  0  0
    3.4202    7.9009   20.3866 C   0  0  0  0  0  0  0  0  0  0  0  0
   13.5280   10.3522   19.3586 C   0  0  0  0  0  0  0  0  0  0  0  0
    9.6923    5.6468   22.7891 C   0  0  0  0  0  0  0  0  0  0  0  0
   11.7756   10.2554   20.8841 N   0  0  0  0  0  0  0  0  0  0  0  0
    8.9876   11.9370   19.8757 O   0  0  0  0  0  0  0  0  0  0  0  0
    6.0167    8.4478   21.1089 C   0  0  0  0  0  0  0  0  0  0  0  0
   11.0002   10.8890   20.0262 C   0  0  0  0  0  0  0  0  0  0  0  0
    2.1721    7.7393   20.0315 O   0  0  0  0  0  0  0  0  0  0  0  0
    9.1107   10.3880   21.3769 N   0  0  0  0  0  0  0  0  0  0  0  0
    3.9102    9.2008   20.3124 C   0  0  0  0  0  0  0  0  0  0  0  0
   12.7292   10.9960   18.4597 C   0  0  0  0  0  0  0  0  0  0  0  0
    9.3798    6.6793   23.6625 C   0  0  0  0  0  0  0  0  0  0  0  0
   14.7425   10.0739   19.0802 O   0  0  0  0  0  0  0  0  0  0  0  0
    5.1894    9.4673   20.7118 C   0  0  0  0  0  0  0  0  0  0  0  0
    7.3773    8.8224   21.4870 C   0  0  0  0  0  0  0  0  0  0  0  0
    8.4391    6.6439   21.0235 C   0  0  0  0  0  0  0  0  0  0  0  0
    9.6494   11.1353   20.4167 C   0  0  0  0  0  0  0  0  0  0  0  0
    8.1431    7.6829   21.9046 C   0  0  0  0  0  0  0  0  0  0  0  0
    7.7796   10.1314   21.5115 N   0  0  0  0  0  0  0  0  0  0  0  0
    9.2768    5.6183   21.4437 C   0  0  0  0  0  0  0  0  0  0  0  0
    8.6315    7.7322   23.1768 C   0  0  0  0  0  0  0  0  0  0  0  0
   13.0537    9.9821   20.5781 C   0  0  0  0  0  0  0  0  0  0  0  0
   10.3850    4.6575   23.2386 O   0  0  0  0  0  0  0  0  0  0  0  0
    4.2069    6.8450   20.7994 C   0  0  0  0  0  0  0  0  0  0  0  0
    3.0726   10.1043   19.8522 O   0  0  0  0  0  0  0  0  0  0  0  0
    5.5057    7.1196   21.1155 C   0  0  0  0  0  0  0  0  0  0  0  0
    7.0367   11.0229   21.9948 O   0  0  0  0  0  0  0  0  0  0  0  0
  1  8  4  0
  1 12  4  0
  2  9  1  0
  2 11  4  0
  2 25  4  0
  3 12  4  0
  3 14  1  0
  3 23  4  0
  4 13  4  0
  4 21  4  0
  4 24  1  0
  5  8  4  0
  5 23  4  0
  6 18  2  0
  7 15  4  0
  7 16  1  0
  7 27  4  0
  8 18  1  0
 10 18  1  0
 10 20  1  0
 11 15  4  0
 11 26  1  0
 13 22  4  0
 16 19  1  0
 16 20  2  0
 17 19  4  0
 17 21  4  0
 19 22  4  0
 20 28  1  0
 25 27  4  0
M  END
$$$$

 Created by Python create_sdf_string function

 28 30  0  0  0  0  0  0  0  0999 V2000
   11.4592   11.2893   18.7941 C   0  0  0  0  0  0  0  0  0  0  0  0
    3.4202    7.9009   20.3866 C   0  0  0  0  0  0  0  0  0  0  0  0
   13.5280   10.3522   19.3586 C   0  0  0  0  0  0  0  0  0  0  0  0
    9.6923    5.6468   22.7891 C   0  0  0  0  0  0  0  0  0  0  0  0
   11.7756   10.2554   20.8841 N   0  0  0  0  0  0  0  0  0  0  0  0
    8.9876   11.9370   19.8757 O   0  0  0  0  0  0  0  0  0  0  0  0
    6.0167    8.4478   21.1089 C   0  0  0  0  0  0  0  0  0  0  0  0
   11.0002   10.8890   20.0262 C   0  0  0  0  0  0  0  0  0  0  0  0
    2.1721    7.7393   20.0315 O   0  0  0  0  0  0  0  0  0  0  0  0
    9.1107   10.3880   21.3769 N   0  0  0  0  0  0  0  0  0  0  0  0
    3.9102    9.2008   20.3124 C   0  0  0  0  0  0  0  0  0  0  0  0
   12.7292   10.9960   18.4597 C   0  0  0  0  0  0  0  0  0  0  0  0
    9.3798    6.6793   23.6625 C   0  0  0  0  0  0  0  0  0  0  0  0
   14.7425   10.0739   19.0802 O   0  0  0  0  0  0  0  0  0  0  0  0
    5.1894    9.4673   20.7118 C   0  0  0  0  0  0  0  0  0  0  0  0
    7.3773    8.8224   21.4870 C   0  0  0  0  0  0  0  0  0  0  0  0
    8.4391    6.6439   21.0235 C   0  0  0  0  0  0  0  0  0  0  0  0
    9.6494   11.1353   20.4167 C   0  0  0  0  0  0  0  0  0  0  0  0
    8.1431    7.6829   21.9046 C   0  0  0  0  0  0  0  0  0  0  0  0
    7.7796   10.1314   21.5115 N   0  0  0  0  0  0  0  0  0  0  0  0
    9.2768    5.6183   21.4437 C   0  0  0  0  0  0  0  0  0  0  0  0
    8.6315    7.7322   23.1768 C   0  0  0  0  0  0  0  0  0  0  0  0
   13.0537    9.9821   20.5781 C   0  0  0  0  0  0  0  0  0  0  0  0
   10.3850    4.6575   23.2386 O   0  0  0  0  0  0  0  0  0  0  0  0
    4.2069    6.8450   20.7994 C   0  0  0  0  0  0  0  0  0  0  0  0
    3.0726   10.1043   19.8522 O   0  0  0  0  0  0  0  0  0  0  0  0
    5.5057    7.1196   21.1155 C   0  0  0  0  0  0  0  0  0  0  0  0
    7.0367   11.0229   21.9948 O   0  0  0  0  0  0  0  0  0  0  0  0
  1  8  4  0
  1 12  4  0
  2  9  1  0
  2 11  4  0
  2 25  4  0
  3 12  4  0
  3 14  1  0
  3 23  4  0
  4 13  4  0
  4 21  4  0
  4 24  1  0
  5  8  4  0
  5 23  4  0
  6 18  2  0
  7 15  4  0
  7 16  1  0
  7 27  4  0
  8 18  1  0
 10 18  1  0
 10 20  1  0
 11 15  4  0
 11 26  1  0
 13 22  4  0
 16 19  1  0
 16 20  2  0
 17 19  4  0
 17 21  4  0
 19 22  4  0
 20 28  1  0
 25 27  4  0
M  END
$$$$

 Created by Python create_sdf_string function

 28 30  0  0  0  0  0  0  0  0999 V2000
   11.4592   11.2893   18.7941 C   0  0  0  0  0  0  0  0  0  0  0  0
    3.4202    7.9009   20.3866 C   0  0  0  0  0  0  0  0  0  0  0  0
   13.5280   10.3522   19.3586 C   0  0  0  0  0  0  0  0  0  0  0  0
    9.6923    5.6468   22.7891 C   0  0  0  0  0  0  0  0  0  0  0  0
   11.7756   10.2554   20.8841 N   0  0  0  0  0  0  0  0  0  0  0  0
    8.9876   11.9370   19.8757 O   0  0  0  0  0  0  0  0  0  0  0  0
    6.0167    8.4478   21.1089 C   0  0  0  0  0  0  0  0  0  0  0  0
   11.0002   10.8890   20.0262 C   0  0  0  0  0  0  0  0  0  0  0  0
    2.1721    7.7393   20.0315 O   0  0  0  0  0  0  0  0  0  0  0  0
    9.1107   10.3880   21.3769 N   0  0  0  0  0  0  0  0  0  0  0  0
    3.9102    9.2008   20.3124 C   0  0  0  0  0  0  0  0  0  0  0  0
   12.7292   10.9960   18.4597 C   0  0  0  0  0  0  0  0  0  0  0  0
    9.3798    6.6793   23.6625 C   0  0  0  0  0  0  0  0  0  0  0  0
   14.7425   10.0739   19.0802 O   0  0  0  0  0  0  0  0  0  0  0  0
    5.1894    9.4673   20.7118 C   0  0  0  0  0  0  0  0  0  0  0  0
    7.3773    8.8224   21.4870 C   0  0  0  0  0  0  0  0  0  0  0  0
    8.4391    6.6439   21.0235 C   0  0  0  0  0  0  0  0  0  0  0  0
    9.6494   11.1353   20.4167 C   0  0  0  0  0  0  0  0  0  0  0  0
    8.1431    7.6829   21.9046 C   0  0  0  0  0  0  0  0  0  0  0  0
    7.7796   10.1314   21.5115 N   0  0  0  0  0  0  0  0  0  0  0  0
    9.2768    5.6183   21.4437 C   0  0  0  0  0  0  0  0  0  0  0  0
    8.6315    7.7322   23.1768 C   0  0  0  0  0  0  0  0  0  0  0  0
   13.0537    9.9821   20.5781 C   0  0  0  0  0  0  0  0  0  0  0  0
   10.3850    4.6575   23.2386 O   0  0  0  0  0  0  0  0  0  0  0  0
    4.2069    6.8450   20.7994 C   0  0  0  0  0  0  0  0  0  0  0  0
    3.0726   10.1043   19.8522 O   0  0  0  0  0  0  0  0  0  0  0  0
    5.5057    7.1196   21.1155 C   0  0  0  0  0  0  0  0  0  0  0  0
    7.0367   11.0229   21.9948 O   0  0  0  0  0  0  0  0  0  0  0  0
  1  8  4  0
  1 12  4  0
  2  9  1  0
  2 11  4  0
  2 25  4  0
  3 12  4  0
  3 14  1  0
  3 23  4  0
  4 13  4  0
  4 21  4  0
  4 24  1  0
  5  8  4  0
  5 23  4  0
  6 18  2  0
  7 15  4  0
  7 16  1  0
  7 27  4  0
  8 18  1  0
 10 18  1  0
 10 20  1  0
 11 15  4  0
 11 26  1  0
 13 22  4  0
 16 19  1  0
 16 20  2  0
 17 19  4  0
 17 21  4  0
 19 22  4  0
 20 28  1  0
 25 27  4  0
M  END
$$$$

 Created by Python create_sdf_string function

 28 30  0  0  0  0  0  0  0  0999 V2000
   11.4592   11.2893   18.7941 C   0  0  0  0  0  0  0  0  0  0  0  0
    3.4202    7.9009   20.3866 C   0  0  0  0  0  0  0  0  0  0  0  0
   13.5280   10.3522   19.3586 C   0  0  0  0  0  0  0  0  0  0  0  0
    9.6923    5.6468   22.7891 C   0  0  0  0  0  0  0  0  0  0  0  0
   11.7756   10.2554   20.8841 N   0  0  0  0  0  0  0  0  0  0  0  0
    8.9876   11.9370   19.8757 O   0  0  0  0  0  0  0  0  0  0  0  0
    6.0167    8.4478   21.1089 C   0  0  0  0  0  0  0  0  0  0  0  0
   11.0002   10.8890   20.0262 C   0  0  0  0  0  0  0  0  0  0  0  0
    2.1721    7.7393   20.0315 O   0  0  0  0  0  0  0  0  0  0  0  0
    9.1107   10.3880   21.3769 N   0  0  0  0  0  0  0  0  0  0  0  0
    3.9102    9.2008   20.3124 C   0  0  0  0  0  0  0  0  0  0  0  0
   12.7292   10.9960   18.4597 C   0  0  0  0  0  0  0  0  0  0  0  0
    9.3798    6.6793   23.6625 C   0  0  0  0  0  0  0  0  0  0  0  0
   14.7425   10.0739   19.0802 O   0  0  0  0  0  0  0  0  0  0  0  0
    5.1894    9.4673   20.7118 C   0  0  0  0  0  0  0  0  0  0  0  0
    7.3773    8.8224   21.4870 C   0  0  0  0  0  0  0  0  0  0  0  0
    8.4391    6.6439   21.0235 C   0  0  0  0  0  0  0  0  0  0  0  0
    9.6494   11.1353   20.4167 C   0  0  0  0  0  0  0  0  0  0  0  0
    8.1431    7.6829   21.9046 C   0  0  0  0  0  0  0  0  0  0  0  0
    7.7796   10.1314   21.5115 N   0  0  0  0  0  0  0  0  0  0  0  0
    9.2768    5.6183   21.4437 C   0  0  0  0  0  0  0  0  0  0  0  0
    8.6315    7.7322   23.1768 C   0  0  0  0  0  0  0  0  0  0  0  0
   13.0537    9.9821   20.5781 C   0  0  0  0  0  0  0  0  0  0  0  0
   10.3850    4.6575   23.2386 O   0  0  0  0  0  0  0  0  0  0  0  0
    4.2069    6.8450   20.7994 C   0  0  0  0  0  0  0  0  0  0  0  0
    3.0726   10.1043   19.8522 O   0  0  0  0  0  0  0  0  0  0  0  0
    5.5057    7.1196   21.1155 C   0  0  0  0  0  0  0  0  0  0  0  0
    7.0367   11.0229   21.9948 O   0  0  0  0  0  0  0  0  0  0  0  0
  1  8  4  0
  1 12  4  0
  2  9  1  0
  2 11  4  0
  2 25  4  0
  3 12  4  0
  3 14  1  0
  3 23  4  0
  4 13  4  0
  4 21  4  0
  4 24  1  0
  5  8  4  0
  5 23  4  0
  6 18  2  0
  7 15  4  0
  7 16  1  0
  7 27  4  0
  8 18  1  0
 10 18  1  0
 10 20  1  0
 11 15  4  0
 11 26  1  0
 13 22  4  0
 16 19  1  0
 16 20  2  0
 17 19  4  0
 17 21  4  0
 19 22  4  0
 20 28  1  0
 25 27  4  0
M  END
$$$$

 Created by Python create_sdf_string function

 28 30  0  0  0  0  0  0  0  0999 V2000
   11.4592   11.2893   18.7941 C   0  0  0  0  0  0  0  0  0  0  0  0
    3.4202    7.9009   20.3866 C   0  0  0  0  0  0  0  0  0  0  0  0
   13.5280   10.3522   19.3586 C   0  0  0  0  0  0  0  0  0  0  0  0
    9.6923    5.6468   22.7891 C   0  0  0  0  0  0  0  0  0  0  0  0
   11.7756   10.2554   20.8841 N   0  0  0  0  0  0  0  0  0  0  0  0
    8.9876   11.9370   19.8757 O   0  0  0  0  0  0  0  0  0  0  0  0
    6.0167    8.4478   21.1089 C   0  0  0  0  0  0  0  0  0  0  0  0
   11.0002   10.8890   20.0262 C   0  0  0  0  0  0  0  0  0  0  0  0
    2.1721    7.7393   20.0315 O   0  0  0  0  0  0  0  0  0  0  0  0
    9.1107   10.3880   21.3769 N   0  0  0  0  0  0  0  0  0  0  0  0
    3.9102    9.2008   20.3124 C   0  0  0  0  0  0  0  0  0  0  0  0
   12.7292   10.9960   18.4597 C   0  0  0  0  0  0  0  0  0  0  0  0
    9.3798    6.6793   23.6625 C   0  0  0  0  0  0  0  0  0  0  0  0
   14.7425   10.0739   19.0802 O   0  0  0  0  0  0  0  0  0  0  0  0
    5.1894    9.4673   20.7118 C   0  0  0  0  0  0  0  0  0  0  0  0
    7.3773    8.8224   21.4870 C   0  0  0  0  0  0  0  0  0  0  0  0
    8.4391    6.6439   21.0235 C   0  0  0  0  0  0  0  0  0  0  0  0
    9.6494   11.1353   20.4167 C   0  0  0  0  0  0  0  0  0  0  0  0
    8.1431    7.6829   21.9046 C   0  0  0  0  0  0  0  0  0  0  0  0
    7.7796   10.1314   21.5115 N   0  0  0  0  0  0  0  0  0  0  0  0
    9.2768    5.6183   21.4437 C   0  0  0  0  0  0  0  0  0  0  0  0
    8.6315    7.7322   23.1768 C   0  0  0  0  0  0  0  0  0  0  0  0
   13.0537    9.9821   20.5781 C   0  0  0  0  0  0  0  0  0  0  0  0
   10.3850    4.6575   23.2386 O   0  0  0  0  0  0  0  0  0  0  0  0
    4.2069    6.8450   20.7994 C   0  0  0  0  0  0  0  0  0  0  0  0
    3.0726   10.1043   19.8522 O   0  0  0  0  0  0  0  0  0  0  0  0
    5.5057    7.1196   21.1155 C   0  0  0  0  0  0  0  0  0  0  0  0
    7.0367   11.0229   21.9948 O   0  0  0  0  0  0  0  0  0  0  0  0
  1  8  4  0
  1 12  4  0
  2  9  1  0
  2 11  4  0
  2 25  4  0
  3 12  4  0
  3 14  1  0
  3 23  4  0
  4 13  4  0
  4 21  4  0
  4 24  1  0
  5  8  4  0
  5 23  4  0
  6 18  2  0
  7 15  4  0
  7 16  1  0
  7 27  4  0
  8 18  1  0
 10 18  1  0
 10 20  1  0
 11 15  4  0
 11 26  1  0
 13 22  4  0
 16 19  1  0
 16 20  2  0
 17 19  4  0
 17 21  4  0
 19 22  4  0
 20 28  1  0
 25 27  4  0
M  END
$$$$

 Created by Python create_sdf_string function

 28 30  0  0  0  0  0  0  0  0999 V2000
   11.4592   11.2893   18.7941 C   0  0  0  0  0  0  0  0  0  0  0  0
    3.4202    7.9009   20.3866 C   0  0  0  0  0  0  0  0  0  0  0  0
   13.5280   10.3522   19.3586 C   0  0  0  0  0  0  0  0  0  0  0  0
    9.6923    5.6468   22.7891 C   0  0  0  0  0  0  0  0  0  0  0  0
   11.7756   10.2554   20.8841 N   0  0  0  0  0  0  0  0  0  0  0  0
    8.9876   11.9370   19.8757 O   0  0  0  0  0  0  0  0  0  0  0  0
    6.0167    8.4478   21.1089 C   0  0  0  0  0  0  0  0  0  0  0  0
   11.0002   10.8890   20.0262 C   0  0  0  0  0  0  0  0  0  0  0  0
    2.1721    7.7393   20.0315 O   0  0  0  0  0  0  0  0  0  0  0  0
    9.1107   10.3880   21.3769 N   0  0  0  0  0  0  0  0  0  0  0  0
    3.9102    9.2008   20.3124 C   0  0  0  0  0  0  0  0  0  0  0  0
   12.7292   10.9960   18.4597 C   0  0  0  0  0  0  0  0  0  0  0  0
    9.3798    6.6793   23.6625 C   0  0  0  0  0  0  0  0  0  0  0  0
   14.7425   10.0739   19.0802 O   0  0  0  0  0  0  0  0  0  0  0  0
    5.1894    9.4673   20.7118 C   0  0  0  0  0  0  0  0  0  0  0  0
    7.3773    8.8224   21.4870 C   0  0  0  0  0  0  0  0  0  0  0  0
    8.4391    6.6439   21.0235 C   0  0  0  0  0  0  0  0  0  0  0  0
    9.6494   11.1353   20.4167 C   0  0  0  0  0  0  0  0  0  0  0  0
    8.1431    7.6829   21.9046 C   0  0  0  0  0  0  0  0  0  0  0  0
    7.7796   10.1314   21.5115 N   0  0  0  0  0  0  0  0  0  0  0  0
    9.2768    5.6183   21.4437 C   0  0  0  0  0  0  0  0  0  0  0  0
    8.6315    7.7322   23.1768 C   0  0  0  0  0  0  0  0  0  0  0  0
   13.0537    9.9821   20.5781 C   0  0  0  0  0  0  0  0  0  0  0  0
   10.3850    4.6575   23.2386 O   0  0  0  0  0  0  0  0  0  0  0  0
    4.2069    6.8450   20.7994 C   0  0  0  0  0  0  0  0  0  0  0  0
    3.0726   10.1043   19.8522 O   0  0  0  0  0  0  0  0  0  0  0  0
    5.5057    7.1196   21.1155 C   0  0  0  0  0  0  0  0  0  0  0  0
    7.0367   11.0229   21.9948 O   0  0  0  0  0  0  0  0  0  0  0  0
  1  8  4  0
  1 12  4  0
  2  9  1  0
  2 11  4  0
  2 25  4  0
  3 12  4  0
  3 14  1  0
  3 23  4  0
  4 13  4  0
  4 21  4  0
  4 24  1  0
  5  8  4  0
  5 23  4  0
  6 18  2  0
  7 15  4  0
  7 16  1  0
  7 27  4  0
  8 18  1  0
 10 18  1  0
 10 20  1  0
 11 15  4  0
 11 26  1  0
 13 22  4  0
 16 19  1  0
 16 20  2  0
 17 19  4  0
 17 21  4  0
 19 22  4  0
 20 28  1  0
 25 27  4  0
M  END
$$$$

 Created by Python create_sdf_string function

 28 30  0  0  0  0  0  0  0  0999 V2000
   11.4592   11.2893   18.7941 C   0  0  0  0  0  0  0  0  0  0  0  0
    3.4202    7.9009   20.3866 C   0  0  0  0  0  0  0  0  0  0  0  0
   13.5280   10.3522   19.3586 C   0  0  0  0  0  0  0  0  0  0  0  0
    9.6923    5.6468   22.7891 C   0  0  0  0  0  0  0  0  0  0  0  0
   11.7756   10.2554   20.8841 N   0  0  0  0  0  0  0  0  0  0  0  0
    8.9876   11.9370   19.8757 O   0  0  0  0  0  0  0  0  0  0  0  0
    6.0167    8.4478   21.1089 C   0  0  0  0  0  0  0  0  0  0  0  0
   11.0002   10.8890   20.0262 C   0  0  0  0  0  0  0  0  0  0  0  0
    2.1721    7.7393   20.0315 O   0  0  0  0  0  0  0  0  0  0  0  0
    9.1107   10.3880   21.3769 N   0  0  0  0  0  0  0  0  0  0  0  0
    3.9102    9.2008   20.3124 C   0  0  0  0  0  0  0  0  0  0  0  0
   12.7292   10.9960   18.4597 C   0  0  0  0  0  0  0  0  0  0  0  0
    9.3798    6.6793   23.6625 C   0  0  0  0  0  0  0  0  0  0  0  0
   14.7425   10.0739   19.0802 O   0  0  0  0  0  0  0  0  0  0  0  0
    5.1894    9.4673   20.7118 C   0  0  0  0  0  0  0  0  0  0  0  0
    7.3773    8.8224   21.4870 C   0  0  0  0  0  0  0  0  0  0  0  0
    8.4391    6.6439   21.0235 C   0  0  0  0  0  0  0  0  0  0  0  0
    9.6494   11.1353   20.4167 C   0  0  0  0  0  0  0  0  0  0  0  0
    8.1431    7.6829   21.9046 C   0  0  0  0  0  0  0  0  0  0  0  0
    7.7796   10.1314   21.5115 N   0  0  0  0  0  0  0  0  0  0  0  0
    9.2768    5.6183   21.4437 C   0  0  0  0  0  0  0  0  0  0  0  0
    8.6315    7.7322   23.1768 C   0  0  0  0  0  0  0  0  0  0  0  0
   13.0537    9.9821   20.5781 C   0  0  0  0  0  0  0  0  0  0  0  0
   10.3850    4.6575   23.2386 O   0  0  0  0  0  0  0  0  0  0  0  0
    4.2069    6.8450   20.7994 C   0  0  0  0  0  0  0  0  0  0  0  0
    3.0726   10.1043   19.8522 O   0  0  0  0  0  0  0  0  0  0  0  0
    5.5057    7.1196   21.1155 C   0  0  0  0  0  0  0  0  0  0  0  0
    7.0367   11.0229   21.9948 O   0  0  0  0  0  0  0  0  0  0  0  0
  1  8  4  0
  1 12  4  0
  2  9  1  0
  2 11  4  0
  2 25  4  0
  3 12  4  0
  3 14  1  0
  3 23  4  0
  4 13  4  0
  4 21  4  0
  4 24  1  0
  5  8  4  0
  5 23  4  0
  6 18  2  0
  7 15  4  0
  7 16  1  0
  7 27  4  0
  8 18  1  0
 10 18  1  0
 10 20  1  0
 11 15  4  0
 11 26  1  0
 13 22  4  0
 16 19  1  0
 16 20  2  0
 17 19  4  0
 17 21  4  0
 19 22  4  0
 20 28  1  0
 25 27  4  0
M  END
$$$$

 Created by Python create_sdf_string function

 28 30  0  0  0  0  0  0  0  0999 V2000
   11.4592   11.2893   18.7941 C   0  0  0  0  0  0  0  0  0  0  0  0
    3.4202    7.9009   20.3866 C   0  0  0  0  0  0  0  0  0  0  0  0
   13.5280   10.3522   19.3586 C   0  0  0  0  0  0  0  0  0  0  0  0
    9.6923    5.6468   22.7891 C   0  0  0  0  0  0  0  0  0  0  0  0
   11.7756   10.2554   20.8841 N   0  0  0  0  0  0  0  0  0  0  0  0
    8.9876   11.9370   19.8757 O   0  0  0  0  0  0  0  0  0  0  0  0
    6.0167    8.4478   21.1089 C   0  0  0  0  0  0  0  0  0  0  0  0
   11.0002   10.8890   20.0262 C   0  0  0  0  0  0  0  0  0  0  0  0
    2.1721    7.7393   20.0315 O   0  0  0  0  0  0  0  0  0  0  0  0
    9.1107   10.3880   21.3769 N   0  0  0  0  0  0  0  0  0  0  0  0
    3.9102    9.2008   20.3124 C   0  0  0  0  0  0  0  0  0  0  0  0
   12.7292   10.9960   18.4597 C   0  0  0  0  0  0  0  0  0  0  0  0
    9.3798    6.6793   23.6625 C   0  0  0  0  0  0  0  0  0  0  0  0
   14.7425   10.0739   19.0802 O   0  0  0  0  0  0  0  0  0  0  0  0
    5.1894    9.4673   20.7118 C   0  0  0  0  0  0  0  0  0  0  0  0
    7.3773    8.8224   21.4870 C   0  0  0  0  0  0  0  0  0  0  0  0
    8.4391    6.6439   21.0235 C   0  0  0  0  0  0  0  0  0  0  0  0
    9.6494   11.1353   20.4167 C   0  0  0  0  0  0  0  0  0  0  0  0
    8.1431    7.6829   21.9046 C   0  0  0  0  0  0  0  0  0  0  0  0
    7.7796   10.1314   21.5115 N   0  0  0  0  0  0  0  0  0  0  0  0
    9.2768    5.6183   21.4437 C   0  0  0  0  0  0  0  0  0  0  0  0
    8.6315    7.7322   23.1768 C   0  0  0  0  0  0  0  0  0  0  0  0
   13.0537    9.9821   20.5781 C   0  0  0  0  0  0  0  0  0  0  0  0
   10.3850    4.6575   23.2386 O   0  0  0  0  0  0  0  0  0  0  0  0
    4.2069    6.8450   20.7994 C   0  0  0  0  0  0  0  0  0  0  0  0
    3.0726   10.1043   19.8522 O   0  0  0  0  0  0  0  0  0  0  0  0
    5.5057    7.1196   21.1155 C   0  0  0  0  0  0  0  0  0  0  0  0
    7.0367   11.0229   21.9948 O   0  0  0  0  0  0  0  0  0  0  0  0
  1  8  4  0
  1 12  4  0
  2  9  1  0
  2 11  4  0
  2 25  4  0
  3 12  4  0
  3 14  1  0
  3 23  4  0
  4 13  4  0
  4 21  4  0
  4 24  1  0
  5  8  4  0
  5 23  4  0
  6 18  2  0
  7 15  4  0
  7 16  1  0
  7 27  4  0
  8 18  1  0
 10 18  1  0
 10 20  1  0
 11 15  4  0
 11 26  1  0
 13 22  4  0
 16 19  1  0
 16 20  2  0
 17 19  4  0
 17 21  4  0
 19 22  4  0
 20 28  1  0
 25 27  4  0
M  END
$$$$

 Created by Python create_sdf_string function

 28 30  0  0  0  0  0  0  0  0999 V2000
   11.4592   11.2893   18.7941 C   0  0  0  0  0  0  0  0  0  0  0  0
    3.4202    7.9009   20.3866 C   0  0  0  0  0  0  0  0  0  0  0  0
   13.5280   10.3522   19.3586 C   0  0  0  0  0  0  0  0  0  0  0  0
    9.6923    5.6468   22.7891 C   0  0  0  0  0  0  0  0  0  0  0  0
   11.7756   10.2554   20.8841 N   0  0  0  0  0  0  0  0  0  0  0  0
    8.9876   11.9370   19.8757 O   0  0  0  0  0  0  0  0  0  0  0  0
    6.0167    8.4478   21.1089 C   0  0  0  0  0  0  0  0  0  0  0  0
   11.0002   10.8890   20.0262 C   0  0  0  0  0  0  0  0  0  0  0  0
    2.1721    7.7393   20.0315 O   0  0  0  0  0  0  0  0  0  0  0  0
    9.1107   10.3880   21.3769 N   0  0  0  0  0  0  0  0  0  0  0  0
    3.9102    9.2008   20.3124 C   0  0  0  0  0  0  0  0  0  0  0  0
   12.7292   10.9960   18.4597 C   0  0  0  0  0  0  0  0  0  0  0  0
    9.3798    6.6793   23.6625 C   0  0  0  0  0  0  0  0  0  0  0  0
   14.7425   10.0739   19.0802 O   0  0  0  0  0  0  0  0  0  0  0  0
    5.1894    9.4673   20.7118 C   0  0  0  0  0  0  0  0  0  0  0  0
    7.3773    8.8224   21.4870 C   0  0  0  0  0  0  0  0  0  0  0  0
    8.4391    6.6439   21.0235 C   0  0  0  0  0  0  0  0  0  0  0  0
    9.6494   11.1353   20.4167 C   0  0  0  0  0  0  0  0  0  0  0  0
    8.1431    7.6829   21.9046 C   0  0  0  0  0  0  0  0  0  0  0  0
    7.7796   10.1314   21.5115 N   0  0  0  0  0  0  0  0  0  0  0  0
    9.2768    5.6183   21.4437 C   0  0  0  0  0  0  0  0  0  0  0  0
    8.6315    7.7322   23.1768 C   0  0  0  0  0  0  0  0  0  0  0  0
   13.0537    9.9821   20.5781 C   0  0  0  0  0  0  0  0  0  0  0  0
   10.3850    4.6575   23.2386 O   0  0  0  0  0  0  0  0  0  0  0  0
    4.2069    6.8450   20.7994 C   0  0  0  0  0  0  0  0  0  0  0  0
    3.0726   10.1043   19.8522 O   0  0  0  0  0  0  0  0  0  0  0  0
    5.5057    7.1196   21.1155 C   0  0  0  0  0  0  0  0  0  0  0  0
    7.0367   11.0229   21.9948 O   0  0  0  0  0  0  0  0  0  0  0  0
  1  8  4  0
  1 12  4  0
  2  9  1  0
  2 11  4  0
  2 25  4  0
  3 12  4  0
  3 14  1  0
  3 23  4  0
  4 13  4  0
  4 21  4  0
  4 24  1  0
  5  8  4  0
  5 23  4  0
  6 18  2  0
  7 15  4  0
  7 16  1  0
  7 27  4  0
  8 18  1  0
 10 18  1  0
 10 20  1  0
 11 15  4  0
 11 26  1  0
 13 22  4  0
 16 19  1  0
 16 20  2  0
 17 19  4  0
 17 21  4  0
 19 22  4  0
 20 28  1  0
 25 27  4  0
M  END
$$$$

 Created by Python create_sdf_string function

 28 30  0  0  0  0  0  0  0  0999 V2000
   11.4592   11.2893   18.7941 C   0  0  0  0  0  0  0  0  0  0  0  0
    3.4202    7.9009   20.3866 C   0  0  0  0  0  0  0  0  0  0  0  0
   13.5280   10.3522   19.3586 C   0  0  0  0  0  0  0  0  0  0  0  0
    9.6923    5.6468   22.7891 C   0  0  0  0  0  0  0  0  0  0  0  0
   11.7756   10.2554   20.8841 N   0  0  0  0  0  0  0  0  0  0  0  0
    8.9876   11.9370   19.8757 O   0  0  0  0  0  0  0  0  0  0  0  0
    6.0167    8.4478   21.1089 C   0  0  0  0  0  0  0  0  0  0  0  0
   11.0002   10.8890   20.0262 C   0  0  0  0  0  0  0  0  0  0  0  0
    2.1721    7.7393   20.0315 O   0  0  0  0  0  0  0  0  0  0  0  0
    9.1107   10.3880   21.3769 N   0  0  0  0  0  0  0  0  0  0  0  0
    3.9102    9.2008   20.3124 C   0  0  0  0  0  0  0  0  0  0  0  0
   12.7292   10.9960   18.4597 C   0  0  0  0  0  0  0  0  0  0  0  0
    9.3798    6.6793   23.6625 C   0  0  0  0  0  0  0  0  0  0  0  0
   14.7425   10.0739   19.0802 O   0  0  0  0  0  0  0  0  0  0  0  0
    5.1894    9.4673   20.7118 C   0  0  0  0  0  0  0  0  0  0  0  0
    7.3773    8.8224   21.4870 C   0  0  0  0  0  0  0  0  0  0  0  0
    8.4391    6.6439   21.0235 C   0  0  0  0  0  0  0  0  0  0  0  0
    9.6494   11.1353   20.4167 C   0  0  0  0  0  0  0  0  0  0  0  0
    8.1431    7.6829   21.9046 C   0  0  0  0  0  0  0  0  0  0  0  0
    7.7796   10.1314   21.5115 N   0  0  0  0  0  0  0  0  0  0  0  0
    9.2768    5.6183   21.4437 C   0  0  0  0  0  0  0  0  0  0  0  0
    8.6315    7.7322   23.1768 C   0  0  0  0  0  0  0  0  0  0  0  0
   13.0537    9.9821   20.5781 C   0  0  0  0  0  0  0  0  0  0  0  0
   10.3850    4.6575   23.2386 O   0  0  0  0  0  0  0  0  0  0  0  0
    4.2069    6.8450   20.7994 C   0  0  0  0  0  0  0  0  0  0  0  0
    3.0726   10.1043   19.8522 O   0  0  0  0  0  0  0  0  0  0  0  0
    5.5057    7.1196   21.1155 C   0  0  0  0  0  0  0  0  0  0  0  0
    7.0367   11.0229   21.9948 O   0  0  0  0  0  0  0  0  0  0  0  0
  1  8  4  0
  1 12  4  0
  2  9  1  0
  2 11  4  0
  2 25  4  0
  3 12  4  0
  3 14  1  0
  3 23  4  0
  4 13  4  0
  4 21  4  0
  4 24  1  0
  5  8  4  0
  5 23  4  0
  6 18  2  0
  7 15  4  0
  7 16  1  0
  7 27  4  0
  8 18  1  0
 10 18  1  0
 10 20  1  0
 11 15  4  0
 11 26  1  0
 13 22  4  0
 16 19  1  0
 16 20  2  0
 17 19  4  0
 17 21  4  0
 19 22  4  0
 20 28  1  0
 25 27  4  0
M  END
$$$$

 Created by Python create_sdf_string function

 28 30  0  0  0  0  0  0  0  0999 V2000
   11.4592   11.2893   18.7941 C   0  0  0  0  0  0  0  0  0  0  0  0
    3.4202    7.9009   20.3866 C   0  0  0  0  0  0  0  0  0  0  0  0
   13.5280   10.3522   19.3586 C   0  0  0  0  0  0  0  0  0  0  0  0
    9.6923    5.6468   22.7891 C   0  0  0  0  0  0  0  0  0  0  0  0
   11.7756   10.2554   20.8841 N   0  0  0  0  0  0  0  0  0  0  0  0
    8.9876   11.9370   19.8757 O   0  0  0  0  0  0  0  0  0  0  0  0
    6.0167    8.4478   21.1089 C   0  0  0  0  0  0  0  0  0  0  0  0
   11.0002   10.8890   20.0262 C   0  0  0  0  0  0  0  0  0  0  0  0
    2.1721    7.7393   20.0315 O   0  0  0  0  0  0  0  0  0  0  0  0
    9.1107   10.3880   21.3769 N   0  0  0  0  0  0  0  0  0  0  0  0
    3.9102    9.2008   20.3124 C   0  0  0  0  0  0  0  0  0  0  0  0
   12.7292   10.9960   18.4597 C   0  0  0  0  0  0  0  0  0  0  0  0
    9.3798    6.6793   23.6625 C   0  0  0  0  0  0  0  0  0  0  0  0
   14.7425   10.0739   19.0802 O   0  0  0  0  0  0  0  0  0  0  0  0
    5.1894    9.4673   20.7118 C   0  0  0  0  0  0  0  0  0  0  0  0
    7.3773    8.8224   21.4870 C   0  0  0  0  0  0  0  0  0  0  0  0
    8.4391    6.6439   21.0235 C   0  0  0  0  0  0  0  0  0  0  0  0
    9.6494   11.1353   20.4167 C   0  0  0  0  0  0  0  0  0  0  0  0
    8.1431    7.6829   21.9046 C   0  0  0  0  0  0  0  0  0  0  0  0
    7.7796   10.1314   21.5115 N   0  0  0  0  0  0  0  0  0  0  0  0
    9.2768    5.6183   21.4437 C   0  0  0  0  0  0  0  0  0  0  0  0
    8.6315    7.7322   23.1768 C   0  0  0  0  0  0  0  0  0  0  0  0
   13.0537    9.9821   20.5781 C   0  0  0  0  0  0  0  0  0  0  0  0
   10.3850    4.6575   23.2386 O   0  0  0  0  0  0  0  0  0  0  0  0
    4.2069    6.8450   20.7994 C   0  0  0  0  0  0  0  0  0  0  0  0
    3.0726   10.1043   19.8522 O   0  0  0  0  0  0  0  0  0  0  0  0
    5.5057    7.1196   21.1155 C   0  0  0  0  0  0  0  0  0  0  0  0
    7.0367   11.0229   21.9948 O   0  0  0  0  0  0  0  0  0  0  0  0
  1  8  4  0
  1 12  4  0
  2  9  1  0
  2 11  4  0
  2 25  4  0
  3 12  4  0
  3 14  1  0
  3 23  4  0
  4 13  4  0
  4 21  4  0
  4 24  1  0
  5  8  4  0
  5 23  4  0
  6 18  2  0
  7 15  4  0
  7 16  1  0
  7 27  4  0
  8 18  1  0
 10 18  1  0
 10 20  1  0
 11 15  4  0
 11 26  1  0
 13 22  4  0
 16 19  1  0
 16 20  2  0
 17 19  4  0
 17 21  4  0
 19 22  4  0
 20 28  1  0
 25 27  4  0
M  END
$$$$

 Created by Python create_sdf_string function

 28 30  0  0  0  0  0  0  0  0999 V2000
   11.4592   11.2893   18.7941 C   0  0  0  0  0  0  0  0  0  0  0  0
    3.4202    7.9009   20.3866 C   0  0  0  0  0  0  0  0  0  0  0  0
   13.5280   10.3522   19.3586 C   0  0  0  0  0  0  0  0  0  0  0  0
    9.6923    5.6468   22.7891 C   0  0  0  0  0  0  0  0  0  0  0  0
   11.7756   10.2554   20.8841 N   0  0  0  0  0  0  0  0  0  0  0  0
    8.9876   11.9370   19.8757 O   0  0  0  0  0  0  0  0  0  0  0  0
    6.0167    8.4478   21.1089 C   0  0  0  0  0  0  0  0  0  0  0  0
   11.0002   10.8890   20.0262 C   0  0  0  0  0  0  0  0  0  0  0  0
    2.1721    7.7393   20.0315 O   0  0  0  0  0  0  0  0  0  0  0  0
    9.1107   10.3880   21.3769 N   0  0  0  0  0  0  0  0  0  0  0  0
    3.9102    9.2008   20.3124 C   0  0  0  0  0  0  0  0  0  0  0  0
   12.7292   10.9960   18.4597 C   0  0  0  0  0  0  0  0  0  0  0  0
    9.3798    6.6793   23.6625 C   0  0  0  0  0  0  0  0  0  0  0  0
   14.7425   10.0739   19.0802 O   0  0  0  0  0  0  0  0  0  0  0  0
    5.1894    9.4673   20.7118 C   0  0  0  0  0  0  0  0  0  0  0  0
    7.3773    8.8224   21.4870 C   0  0  0  0  0  0  0  0  0  0  0  0
    8.4391    6.6439   21.0235 C   0  0  0  0  0  0  0  0  0  0  0  0
    9.6494   11.1353   20.4167 C   0  0  0  0  0  0  0  0  0  0  0  0
    8.1431    7.6829   21.9046 C   0  0  0  0  0  0  0  0  0  0  0  0
    7.7796   10.1314   21.5115 N   0  0  0  0  0  0  0  0  0  0  0  0
    9.2768    5.6183   21.4437 C   0  0  0  0  0  0  0  0  0  0  0  0
    8.6315    7.7322   23.1768 C   0  0  0  0  0  0  0  0  0  0  0  0
   13.0537    9.9821   20.5781 C   0  0  0  0  0  0  0  0  0  0  0  0
   10.3850    4.6575   23.2386 O   0  0  0  0  0  0  0  0  0  0  0  0
    4.2069    6.8450   20.7994 C   0  0  0  0  0  0  0  0  0  0  0  0
    3.0726   10.1043   19.8522 O   0  0  0  0  0  0  0  0  0  0  0  0
    5.5057    7.1196   21.1155 C   0  0  0  0  0  0  0  0  0  0  0  0
    7.0367   11.0229   21.9948 O   0  0  0  0  0  0  0  0  0  0  0  0
  1  8  4  0
  1 12  4  0
  2  9  1  0
  2 11  4  0
  2 25  4  0
  3 12  4  0
  3 14  1  0
  3 23  4  0
  4 13  4  0
  4 21  4  0
  4 24  1  0
  5  8  4  0
  5 23  4  0
  6 18  2  0
  7 15  4  0
  7 16  1  0
  7 27  4  0
  8 18  1  0
 10 18  1  0
 10 20  1  0
 11 15  4  0
 11 26  1  0
 13 22  4  0
 16 19  1  0
 16 20  2  0
 17 19  4  0
 17 21  4  0
 19 22  4  0
 20 28  1  0
 25 27  4  0
M  END
$$$$

 Created by Python create_sdf_string function

 28 30  0  0  0  0  0  0  0  0999 V2000
   11.4592   11.2893   18.7941 C   0  0  0  0  0  0  0  0  0  0  0  0
    3.4202    7.9009   20.3866 C   0  0  0  0  0  0  0  0  0  0  0  0
   13.5280   10.3522   19.3586 C   0  0  0  0  0  0  0  0  0  0  0  0
    9.6923    5.6468   22.7891 C   0  0  0  0  0  0  0  0  0  0  0  0
   11.7756   10.2554   20.8841 N   0  0  0  0  0  0  0  0  0  0  0  0
    8.9876   11.9370   19.8757 O   0  0  0  0  0  0  0  0  0  0  0  0
    6.0167    8.4478   21.1089 C   0  0  0  0  0  0  0  0  0  0  0  0
   11.0002   10.8890   20.0262 C   0  0  0  0  0  0  0  0  0  0  0  0
    2.1721    7.7393   20.0315 O   0  0  0  0  0  0  0  0  0  0  0  0
    9.1107   10.3880   21.3769 N   0  0  0  0  0  0  0  0  0  0  0  0
    3.9102    9.2008   20.3124 C   0  0  0  0  0  0  0  0  0  0  0  0
   12.7292   10.9960   18.4597 C   0  0  0  0  0  0  0  0  0  0  0  0
    9.3798    6.6793   23.6625 C   0  0  0  0  0  0  0  0  0  0  0  0
   14.7425   10.0739   19.0802 O   0  0  0  0  0  0  0  0  0  0  0  0
    5.1894    9.4673   20.7118 C   0  0  0  0  0  0  0  0  0  0  0  0
    7.3773    8.8224   21.4870 C   0  0  0  0  0  0  0  0  0  0  0  0
    8.4391    6.6439   21.0235 C   0  0  0  0  0  0  0  0  0  0  0  0
    9.6494   11.1353   20.4167 C   0  0  0  0  0  0  0  0  0  0  0  0
    8.1431    7.6829   21.9046 C   0  0  0  0  0  0  0  0  0  0  0  0
    7.7796   10.1314   21.5115 N   0  0  0  0  0  0  0  0  0  0  0  0
    9.2768    5.6183   21.4437 C   0  0  0  0  0  0  0  0  0  0  0  0
    8.6315    7.7322   23.1768 C   0  0  0  0  0  0  0  0  0  0  0  0
   13.0537    9.9821   20.5781 C   0  0  0  0  0  0  0  0  0  0  0  0
   10.3850    4.6575   23.2386 O   0  0  0  0  0  0  0  0  0  0  0  0
    4.2069    6.8450   20.7994 C   0  0  0  0  0  0  0  0  0  0  0  0
    3.0726   10.1043   19.8522 O   0  0  0  0  0  0  0  0  0  0  0  0
    5.5057    7.1196   21.1155 C   0  0  0  0  0  0  0  0  0  0  0  0
    7.0367   11.0229   21.9948 O   0  0  0  0  0  0  0  0  0  0  0  0
  1  8  4  0
  1 12  4  0
  2  9  1  0
  2 11  4  0
  2 25  4  0
  3 12  4  0
  3 14  1  0
  3 23  4  0
  4 13  4  0
  4 21  4  0
  4 24  1  0
  5  8  4  0
  5 23  4  0
  6 18  2  0
  7 15  4  0
  7 16  1  0
  7 27  4  0
  8 18  1  0
 10 18  1  0
 10 20  1  0
 11 15  4  0
 11 26  1  0
 13 22  4  0
 16 19  1  0
 16 20  2  0
 17 19  4  0
 17 21  4  0
 19 22  4  0
 20 28  1  0
 25 27  4  0
M  END
$$$$

 Created by Python create_sdf_string function

 28 30  0  0  0  0  0  0  0  0999 V2000
   11.4592   11.2893   18.7941 C   0  0  0  0  0  0  0  0  0  0  0  0
    3.4202    7.9009   20.3866 C   0  0  0  0  0  0  0  0  0  0  0  0
   13.5280   10.3522   19.3586 C   0  0  0  0  0  0  0  0  0  0  0  0
    9.6923    5.6468   22.7891 C   0  0  0  0  0  0  0  0  0  0  0  0
   11.7756   10.2554   20.8841 N   0  0  0  0  0  0  0  0  0  0  0  0
    8.9876   11.9370   19.8757 O   0  0  0  0  0  0  0  0  0  0  0  0
    6.0167    8.4478   21.1089 C   0  0  0  0  0  0  0  0  0  0  0  0
   11.0002   10.8890   20.0262 C   0  0  0  0  0  0  0  0  0  0  0  0
    2.1721    7.7393   20.0315 O   0  0  0  0  0  0  0  0  0  0  0  0
    9.1107   10.3880   21.3769 N   0  0  0  0  0  0  0  0  0  0  0  0
    3.9102    9.2008   20.3124 C   0  0  0  0  0  0  0  0  0  0  0  0
   12.7292   10.9960   18.4597 C   0  0  0  0  0  0  0  0  0  0  0  0
    9.3798    6.6793   23.6625 C   0  0  0  0  0  0  0  0  0  0  0  0
   14.7425   10.0739   19.0802 O   0  0  0  0  0  0  0  0  0  0  0  0
    5.1894    9.4673   20.7118 C   0  0  0  0  0  0  0  0  0  0  0  0
    7.3773    8.8224   21.4870 C   0  0  0  0  0  0  0  0  0  0  0  0
    8.4391    6.6439   21.0235 C   0  0  0  0  0  0  0  0  0  0  0  0
    9.6494   11.1353   20.4167 C   0  0  0  0  0  0  0  0  0  0  0  0
    8.1431    7.6829   21.9046 C   0  0  0  0  0  0  0  0  0  0  0  0
    7.7796   10.1314   21.5115 N   0  0  0  0  0  0  0  0  0  0  0  0
    9.2768    5.6183   21.4437 C   0  0  0  0  0  0  0  0  0  0  0  0
    8.6315    7.7322   23.1768 C   0  0  0  0  0  0  0  0  0  0  0  0
   13.0537    9.9821   20.5781 C   0  0  0  0  0  0  0  0  0  0  0  0
   10.3850    4.6575   23.2386 O   0  0  0  0  0  0  0  0  0  0  0  0
    4.2069    6.8450   20.7994 C   0  0  0  0  0  0  0  0  0  0  0  0
    3.0726   10.1043   19.8522 O   0  0  0  0  0  0  0  0  0  0  0  0
    5.5057    7.1196   21.1155 C   0  0  0  0  0  0  0  0  0  0  0  0
    7.0367   11.0229   21.9948 O   0  0  0  0  0  0  0  0  0  0  0  0
  1  8  4  0
  1 12  4  0
  2  9  1  0
  2 11  4  0
  2 25  4  0
  3 12  4  0
  3 14  1  0
  3 23  4  0
  4 13  4  0
  4 21  4  0
  4 24  1  0
  5  8  4  0
  5 23  4  0
  6 18  2  0
  7 15  4  0
  7 16  1  0
  7 27  4  0
  8 18  1  0
 10 18  1  0
 10 20  1  0
 11 15  4  0
 11 26  1  0
 13 22  4  0
 16 19  1  0
 16 20  2  0
 17 19  4  0
 17 21  4  0
 19 22  4  0
 20 28  1  0
 25 27  4  0
M  END
$$$$

 Created by Python create_sdf_string function

 28 30  0  0  0  0  0  0  0  0999 V2000
   11.4592   11.2893   18.7941 C   0  0  0  0  0  0  0  0  0  0  0  0
    3.4202    7.9009   20.3866 C   0  0  0  0  0  0  0  0  0  0  0  0
   13.5280   10.3522   19.3586 C   0  0  0  0  0  0  0  0  0  0  0  0
    9.6923    5.6468   22.7891 C   0  0  0  0  0  0  0  0  0  0  0  0
   11.7756   10.2554   20.8841 N   0  0  0  0  0  0  0  0  0  0  0  0
    8.9876   11.9370   19.8757 O   0  0  0  0  0  0  0  0  0  0  0  0
    6.0167    8.4478   21.1089 C   0  0  0  0  0  0  0  0  0  0  0  0
   11.0002   10.8890   20.0262 C   0  0  0  0  0  0  0  0  0  0  0  0
    2.1721    7.7393   20.0315 O   0  0  0  0  0  0  0  0  0  0  0  0
    9.1107   10.3880   21.3769 N   0  0  0  0  0  0  0  0  0  0  0  0
    3.9102    9.2008   20.3124 C   0  0  0  0  0  0  0  0  0  0  0  0
   12.7292   10.9960   18.4597 C   0  0  0  0  0  0  0  0  0  0  0  0
    9.3798    6.6793   23.6625 C   0  0  0  0  0  0  0  0  0  0  0  0
   14.7425   10.0739   19.0802 O   0  0  0  0  0  0  0  0  0  0  0  0
    5.1894    9.4673   20.7118 C   0  0  0  0  0  0  0  0  0  0  0  0
    7.3773    8.8224   21.4870 C   0  0  0  0  0  0  0  0  0  0  0  0
    8.4391    6.6439   21.0235 C   0  0  0  0  0  0  0  0  0  0  0  0
    9.6494   11.1353   20.4167 C   0  0  0  0  0  0  0  0  0  0  0  0
    8.1431    7.6829   21.9046 C   0  0  0  0  0  0  0  0  0  0  0  0
    7.7796   10.1314   21.5115 N   0  0  0  0  0  0  0  0  0  0  0  0
    9.2768    5.6183   21.4437 C   0  0  0  0  0  0  0  0  0  0  0  0
    8.6315    7.7322   23.1768 C   0  0  0  0  0  0  0  0  0  0  0  0
   13.0537    9.9821   20.5781 C   0  0  0  0  0  0  0  0  0  0  0  0
   10.3850    4.6575   23.2386 O   0  0  0  0  0  0  0  0  0  0  0  0
    4.2069    6.8450   20.7994 C   0  0  0  0  0  0  0  0  0  0  0  0
    3.0726   10.1043   19.8522 O   0  0  0  0  0  0  0  0  0  0  0  0
    5.5057    7.1196   21.1155 C   0  0  0  0  0  0  0  0  0  0  0  0
    7.0367   11.0229   21.9948 O   0  0  0  0  0  0  0  0  0  0  0  0
  1  8  4  0
  1 12  4  0
  2  9  1  0
  2 11  4  0
  2 25  4  0
  3 12  4  0
  3 14  1  0
  3 23  4  0
  4 13  4  0
  4 21  4  0
  4 24  1  0
  5  8  4  0
  5 23  4  0
  6 18  2  0
  7 15  4  0
  7 16  1  0
  7 27  4  0
  8 18  1  0
 10 18  1  0
 10 20  1  0
 11 15  4  0
 11 26  1  0
 13 22  4  0
 16 19  1  0
 16 20  2  0
 17 19  4  0
 17 21  4  0
 19 22  4  0
 20 28  1  0
 25 27  4  0
M  END
$$$$

 Created by Python create_sdf_string function

 28 30  0  0  0  0  0  0  0  0999 V2000
   11.4592   11.2893   18.7941 C   0  0  0  0  0  0  0  0  0  0  0  0
    3.4202    7.9009   20.3866 C   0  0  0  0  0  0  0  0  0  0  0  0
   13.5280   10.3522   19.3586 C   0  0  0  0  0  0  0  0  0  0  0  0
    9.6923    5.6468   22.7891 C   0  0  0  0  0  0  0  0  0  0  0  0
   11.7756   10.2554   20.8841 N   0  0  0  0  0  0  0  0  0  0  0  0
    8.9876   11.9370   19.8757 O   0  0  0  0  0  0  0  0  0  0  0  0
    6.0167    8.4478   21.1089 C   0  0  0  0  0  0  0  0  0  0  0  0
   11.0002   10.8890   20.0262 C   0  0  0  0  0  0  0  0  0  0  0  0
    2.1721    7.7393   20.0315 O   0  0  0  0  0  0  0  0  0  0  0  0
    9.1107   10.3880   21.3769 N   0  0  0  0  0  0  0  0  0  0  0  0
    3.9102    9.2008   20.3124 C   0  0  0  0  0  0  0  0  0  0  0  0
   12.7292   10.9960   18.4597 C   0  0  0  0  0  0  0  0  0  0  0  0
    9.3798    6.6793   23.6625 C   0  0  0  0  0  0  0  0  0  0  0  0
   14.7425   10.0739   19.0802 O   0  0  0  0  0  0  0  0  0  0  0  0
    5.1894    9.4673   20.7118 C   0  0  0  0  0  0  0  0  0  0  0  0
    7.3773    8.8224   21.4870 C   0  0  0  0  0  0  0  0  0  0  0  0
    8.4391    6.6439   21.0235 C   0  0  0  0  0  0  0  0  0  0  0  0
    9.6494   11.1353   20.4167 C   0  0  0  0  0  0  0  0  0  0  0  0
    8.1431    7.6829   21.9046 C   0  0  0  0  0  0  0  0  0  0  0  0
    7.7796   10.1314   21.5115 N   0  0  0  0  0  0  0  0  0  0  0  0
    9.2768    5.6183   21.4437 C   0  0  0  0  0  0  0  0  0  0  0  0
    8.6315    7.7322   23.1768 C   0  0  0  0  0  0  0  0  0  0  0  0
   13.0537    9.9821   20.5781 C   0  0  0  0  0  0  0  0  0  0  0  0
   10.3850    4.6575   23.2386 O   0  0  0  0  0  0  0  0  0  0  0  0
    4.2069    6.8450   20.7994 C   0  0  0  0  0  0  0  0  0  0  0  0
    3.0726   10.1043   19.8522 O   0  0  0  0  0  0  0  0  0  0  0  0
    5.5057    7.1196   21.1155 C   0  0  0  0  0  0  0  0  0  0  0  0
    7.0367   11.0229   21.9948 O   0  0  0  0  0  0  0  0  0  0  0  0
  1  8  4  0
  1 12  4  0
  2  9  1  0
  2 11  4  0
  2 25  4  0
  3 12  4  0
  3 14  1  0
  3 23  4  0
  4 13  4  0
  4 21  4  0
  4 24  1  0
  5  8  4  0
  5 23  4  0
  6 18  2  0
  7 15  4  0
  7 16  1  0
  7 27  4  0
  8 18  1  0
 10 18  1  0
 10 20  1  0
 11 15  4  0
 11 26  1  0
 13 22  4  0
 16 19  1  0
 16 20  2  0
 17 19  4  0
 17 21  4  0
 19 22  4  0
 20 28  1  0
 25 27  4  0
M  END
$$$$

 Created by Python create_sdf_string function

 28 30  0  0  0  0  0  0  0  0999 V2000
   11.4592   11.2893   18.7941 C   0  0  0  0  0  0  0  0  0  0  0  0
    3.4202    7.9009   20.3866 C   0  0  0  0  0  0  0  0  0  0  0  0
   13.5280   10.3522   19.3586 C   0  0  0  0  0  0  0  0  0  0  0  0
    9.6923    5.6468   22.7891 C   0  0  0  0  0  0  0  0  0  0  0  0
   11.7756   10.2554   20.8841 N   0  0  0  0  0  0  0  0  0  0  0  0
    8.9876   11.9370   19.8757 O   0  0  0  0  0  0  0  0  0  0  0  0
    6.0167    8.4478   21.1089 C   0  0  0  0  0  0  0  0  0  0  0  0
   11.0002   10.8890   20.0262 C   0  0  0  0  0  0  0  0  0  0  0  0
    2.1721    7.7393   20.0315 O   0  0  0  0  0  0  0  0  0  0  0  0
    9.1107   10.3880   21.3769 N   0  0  0  0  0  0  0  0  0  0  0  0
    3.9102    9.2008   20.3124 C   0  0  0  0  0  0  0  0  0  0  0  0
   12.7292   10.9960   18.4597 C   0  0  0  0  0  0  0  0  0  0  0  0
    9.3798    6.6793   23.6625 C   0  0  0  0  0  0  0  0  0  0  0  0
   14.7425   10.0739   19.0802 O   0  0  0  0  0  0  0  0  0  0  0  0
    5.1894    9.4673   20.7118 C   0  0  0  0  0  0  0  0  0  0  0  0
    7.3773    8.8224   21.4870 C   0  0  0  0  0  0  0  0  0  0  0  0
    8.4391    6.6439   21.0235 C   0  0  0  0  0  0  0  0  0  0  0  0
    9.6494   11.1353   20.4167 C   0  0  0  0  0  0  0  0  0  0  0  0
    8.1431    7.6829   21.9046 C   0  0  0  0  0  0  0  0  0  0  0  0
    7.7796   10.1314   21.5115 N   0  0  0  0  0  0  0  0  0  0  0  0
    9.2768    5.6183   21.4437 C   0  0  0  0  0  0  0  0  0  0  0  0
    8.6315    7.7322   23.1768 C   0  0  0  0  0  0  0  0  0  0  0  0
   13.0537    9.9821   20.5781 C   0  0  0  0  0  0  0  0  0  0  0  0
   10.3850    4.6575   23.2386 O   0  0  0  0  0  0  0  0  0  0  0  0
    4.2069    6.8450   20.7994 C   0  0  0  0  0  0  0  0  0  0  0  0
    3.0726   10.1043   19.8522 O   0  0  0  0  0  0  0  0  0  0  0  0
    5.5057    7.1196   21.1155 C   0  0  0  0  0  0  0  0  0  0  0  0
    7.0367   11.0229   21.9948 O   0  0  0  0  0  0  0  0  0  0  0  0
  1  8  4  0
  1 12  4  0
  2  9  1  0
  2 11  4  0
  2 25  4  0
  3 12  4  0
  3 14  1  0
  3 23  4  0
  4 13  4  0
  4 21  4  0
  4 24  1  0
  5  8  4  0
  5 23  4  0
  6 18  2  0
  7 15  4  0
  7 16  1  0
  7 27  4  0
  8 18  1  0
 10 18  1  0
 10 20  1  0
 11 15  4  0
 11 26  1  0
 13 22  4  0
 16 19  1  0
 16 20  2  0
 17 19  4  0
 17 21  4  0
 19 22  4  0
 20 28  1  0
 25 27  4  0
M  END
$$$$

 Created by Python create_sdf_string function

 28 30  0  0  0  0  0  0  0  0999 V2000
   11.4592   11.2893   18.7941 C   0  0  0  0  0  0  0  0  0  0  0  0
    3.4202    7.9009   20.3866 C   0  0  0  0  0  0  0  0  0  0  0  0
   13.5280   10.3522   19.3586 C   0  0  0  0  0  0  0  0  0  0  0  0
    9.6923    5.6468   22.7891 C   0  0  0  0  0  0  0  0  0  0  0  0
   11.7756   10.2554   20.8841 N   0  0  0  0  0  0  0  0  0  0  0  0
    8.9876   11.9370   19.8757 O   0  0  0  0  0  0  0  0  0  0  0  0
    6.0167    8.4478   21.1089 C   0  0  0  0  0  0  0  0  0  0  0  0
   11.0002   10.8890   20.0262 C   0  0  0  0  0  0  0  0  0  0  0  0
    2.1721    7.7393   20.0315 O   0  0  0  0  0  0  0  0  0  0  0  0
    9.1107   10.3880   21.3769 N   0  0  0  0  0  0  0  0  0  0  0  0
    3.9102    9.2008   20.3124 C   0  0  0  0  0  0  0  0  0  0  0  0
   12.7292   10.9960   18.4597 C   0  0  0  0  0  0  0  0  0  0  0  0
    9.3798    6.6793   23.6625 C   0  0  0  0  0  0  0  0  0  0  0  0
   14.7425   10.0739   19.0802 O   0  0  0  0  0  0  0  0  0  0  0  0
    5.1894    9.4673   20.7118 C   0  0  0  0  0  0  0  0  0  0  0  0
    7.3773    8.8224   21.4870 C   0  0  0  0  0  0  0  0  0  0  0  0
    8.4391    6.6439   21.0235 C   0  0  0  0  0  0  0  0  0  0  0  0
    9.6494   11.1353   20.4167 C   0  0  0  0  0  0  0  0  0  0  0  0
    8.1431    7.6829   21.9046 C   0  0  0  0  0  0  0  0  0  0  0  0
    7.7796   10.1314   21.5115 N   0  0  0  0  0  0  0  0  0  0  0  0
    9.2768    5.6183   21.4437 C   0  0  0  0  0  0  0  0  0  0  0  0
    8.6315    7.7322   23.1768 C   0  0  0  0  0  0  0  0  0  0  0  0
   13.0537    9.9821   20.5781 C   0  0  0  0  0  0  0  0  0  0  0  0
   10.3850    4.6575   23.2386 O   0  0  0  0  0  0  0  0  0  0  0  0
    4.2069    6.8450   20.7994 C   0  0  0  0  0  0  0  0  0  0  0  0
    3.0726   10.1043   19.8522 O   0  0  0  0  0  0  0  0  0  0  0  0
    5.5057    7.1196   21.1155 C   0  0  0  0  0  0  0  0  0  0  0  0
    7.0367   11.0229   21.9948 O   0  0  0  0  0  0  0  0  0  0  0  0
  1  8  4  0
  1 12  4  0
  2  9  1  0
  2 11  4  0
  2 25  4  0
  3 12  4  0
  3 14  1  0
  3 23  4  0
  4 13  4  0
  4 21  4  0
  4 24  1  0
  5  8  4  0
  5 23  4  0
  6 18  2  0
  7 15  4  0
  7 16  1  0
  7 27  4  0
  8 18  1  0
 10 18  1  0
 10 20  1  0
 11 15  4  0
 11 26  1  0
 13 22  4  0
 16 19  1  0
 16 20  2  0
 17 19  4  0
 17 21  4  0
 19 22  4  0
 20 28  1  0
 25 27  4  0
M  END
$$$$

 Created by Python create_sdf_string function

 28 30  0  0  0  0  0  0  0  0999 V2000
   11.4592   11.2893   18.7941 C   0  0  0  0  0  0  0  0  0  0  0  0
    3.4202    7.9009   20.3866 C   0  0  0  0  0  0  0  0  0  0  0  0
   13.5280   10.3522   19.3586 C   0  0  0  0  0  0  0  0  0  0  0  0
    9.6923    5.6468   22.7891 C   0  0  0  0  0  0  0  0  0  0  0  0
   11.7756   10.2554   20.8841 N   0  0  0  0  0  0  0  0  0  0  0  0
    8.9876   11.9370   19.8757 O   0  0  0  0  0  0  0  0  0  0  0  0
    6.0167    8.4478   21.1089 C   0  0  0  0  0  0  0  0  0  0  0  0
   11.0002   10.8890   20.0262 C   0  0  0  0  0  0  0  0  0  0  0  0
    2.1721    7.7393   20.0315 O   0  0  0  0  0  0  0  0  0  0  0  0
    9.1107   10.3880   21.3769 N   0  0  0  0  0  0  0  0  0  0  0  0
    3.9102    9.2008   20.3124 C   0  0  0  0  0  0  0  0  0  0  0  0
   12.7292   10.9960   18.4597 C   0  0  0  0  0  0  0  0  0  0  0  0
    9.3798    6.6793   23.6625 C   0  0  0  0  0  0  0  0  0  0  0  0
   14.7425   10.0739   19.0802 O   0  0  0  0  0  0  0  0  0  0  0  0
    5.1894    9.4673   20.7118 C   0  0  0  0  0  0  0  0  0  0  0  0
    7.3773    8.8224   21.4870 C   0  0  0  0  0  0  0  0  0  0  0  0
    8.4391    6.6439   21.0235 C   0  0  0  0  0  0  0  0  0  0  0  0
    9.6494   11.1353   20.4167 C   0  0  0  0  0  0  0  0  0  0  0  0
    8.1431    7.6829   21.9046 C   0  0  0  0  0  0  0  0  0  0  0  0
    7.7796   10.1314   21.5115 N   0  0  0  0  0  0  0  0  0  0  0  0
    9.2768    5.6183   21.4437 C   0  0  0  0  0  0  0  0  0  0  0  0
    8.6315    7.7322   23.1768 C   0  0  0  0  0  0  0  0  0  0  0  0
   13.0537    9.9821   20.5781 C   0  0  0  0  0  0  0  0  0  0  0  0
   10.3850    4.6575   23.2386 O   0  0  0  0  0  0  0  0  0  0  0  0
    4.2069    6.8450   20.7994 C   0  0  0  0  0  0  0  0  0  0  0  0
    3.0726   10.1043   19.8522 O   0  0  0  0  0  0  0  0  0  0  0  0
    5.5057    7.1196   21.1155 C   0  0  0  0  0  0  0  0  0  0  0  0
    7.0367   11.0229   21.9948 O   0  0  0  0  0  0  0  0  0  0  0  0
  1  8  4  0
  1 12  4  0
  2  9  1  0
  2 11  4  0
  2 25  4  0
  3 12  4  0
  3 14  1  0
  3 23  4  0
  4 13  4  0
  4 21  4  0
  4 24  1  0
  5  8  4  0
  5 23  4  0
  6 18  2  0
  7 15  4  0
  7 16  1  0
  7 27  4  0
  8 18  1  0
 10 18  1  0
 10 20  1  0
 11 15  4  0
 11 26  1  0
 13 22  4  0
 16 19  1  0
 16 20  2  0
 17 19  4  0
 17 21  4  0
 19 22  4  0
 20 28  1  0
 25 27  4  0
M  END
$$$$

 Created by Python create_sdf_string function

 28 30  0  0  0  0  0  0  0  0999 V2000
   11.4592   11.2893   18.7941 C   0  0  0  0  0  0  0  0  0  0  0  0
    3.4202    7.9009   20.3866 C   0  0  0  0  0  0  0  0  0  0  0  0
   13.5280   10.3522   19.3586 C   0  0  0  0  0  0  0  0  0  0  0  0
    9.6923    5.6468   22.7891 C   0  0  0  0  0  0  0  0  0  0  0  0
   11.7756   10.2554   20.8841 N   0  0  0  0  0  0  0  0  0  0  0  0
    8.9876   11.9370   19.8757 O   0  0  0  0  0  0  0  0  0  0  0  0
    6.0167    8.4478   21.1089 C   0  0  0  0  0  0  0  0  0  0  0  0
   11.0002   10.8890   20.0262 C   0  0  0  0  0  0  0  0  0  0  0  0
    2.1721    7.7393   20.0315 O   0  0  0  0  0  0  0  0  0  0  0  0
    9.1107   10.3880   21.3769 N   0  0  0  0  0  0  0  0  0  0  0  0
    3.9102    9.2008   20.3124 C   0  0  0  0  0  0  0  0  0  0  0  0
   12.7292   10.9960   18.4597 C   0  0  0  0  0  0  0  0  0  0  0  0
    9.3798    6.6793   23.6625 C   0  0  0  0  0  0  0  0  0  0  0  0
   14.7425   10.0739   19.0802 O   0  0  0  0  0  0  0  0  0  0  0  0
    5.1894    9.4673   20.7118 C   0  0  0  0  0  0  0  0  0  0  0  0
    7.3773    8.8224   21.4870 C   0  0  0  0  0  0  0  0  0  0  0  0
    8.4391    6.6439   21.0235 C   0  0  0  0  0  0  0  0  0  0  0  0
    9.6494   11.1353   20.4167 C   0  0  0  0  0  0  0  0  0  0  0  0
    8.1431    7.6829   21.9046 C   0  0  0  0  0  0  0  0  0  0  0  0
    7.7796   10.1314   21.5115 N   0  0  0  0  0  0  0  0  0  0  0  0
    9.2768    5.6183   21.4437 C   0  0  0  0  0  0  0  0  0  0  0  0
    8.6315    7.7322   23.1768 C   0  0  0  0  0  0  0  0  0  0  0  0
   13.0537    9.9821   20.5781 C   0  0  0  0  0  0  0  0  0  0  0  0
   10.3850    4.6575   23.2386 O   0  0  0  0  0  0  0  0  0  0  0  0
    4.2069    6.8450   20.7994 C   0  0  0  0  0  0  0  0  0  0  0  0
    3.0726   10.1043   19.8522 O   0  0  0  0  0  0  0  0  0  0  0  0
    5.5057    7.1196   21.1155 C   0  0  0  0  0  0  0  0  0  0  0  0
    7.0367   11.0229   21.9948 O   0  0  0  0  0  0  0  0  0  0  0  0
  1  8  4  0
  1 12  4  0
  2  9  1  0
  2 11  4  0
  2 25  4  0
  3 12  4  0
  3 14  1  0
  3 23  4  0
  4 13  4  0
  4 21  4  0
  4 24  1  0
  5  8  4  0
  5 23  4  0
  6 18  2  0
  7 15  4  0
  7 16  1  0
  7 27  4  0
  8 18  1  0
 10 18  1  0
 10 20  1  0
 11 15  4  0
 11 26  1  0
 13 22  4  0
 16 19  1  0
 16 20  2  0
 17 19  4  0
 17 21  4  0
 19 22  4  0
 20 28  1  0
 25 27  4  0
M  END
$$$$

 Created by Python create_sdf_string function

 28 30  0  0  0  0  0  0  0  0999 V2000
   11.4592   11.2893   18.7941 C   0  0  0  0  0  0  0  0  0  0  0  0
    3.4202    7.9009   20.3866 C   0  0  0  0  0  0  0  0  0  0  0  0
   13.5280   10.3522   19.3586 C   0  0  0  0  0  0  0  0  0  0  0  0
    9.6923    5.6468   22.7891 C   0  0  0  0  0  0  0  0  0  0  0  0
   11.7756   10.2554   20.8841 N   0  0  0  0  0  0  0  0  0  0  0  0
    8.9876   11.9370   19.8757 O   0  0  0  0  0  0  0  0  0  0  0  0
    6.0167    8.4478   21.1089 C   0  0  0  0  0  0  0  0  0  0  0  0
   11.0002   10.8890   20.0262 C   0  0  0  0  0  0  0  0  0  0  0  0
    2.1721    7.7393   20.0315 O   0  0  0  0  0  0  0  0  0  0  0  0
    9.1107   10.3880   21.3769 N   0  0  0  0  0  0  0  0  0  0  0  0
    3.9102    9.2008   20.3124 C   0  0  0  0  0  0  0  0  0  0  0  0
   12.7292   10.9960   18.4597 C   0  0  0  0  0  0  0  0  0  0  0  0
    9.3798    6.6793   23.6625 C   0  0  0  0  0  0  0  0  0  0  0  0
   14.7425   10.0739   19.0802 O   0  0  0  0  0  0  0  0  0  0  0  0
    5.1894    9.4673   20.7118 C   0  0  0  0  0  0  0  0  0  0  0  0
    7.3773    8.8224   21.4870 C   0  0  0  0  0  0  0  0  0  0  0  0
    8.4391    6.6439   21.0235 C   0  0  0  0  0  0  0  0  0  0  0  0
    9.6494   11.1353   20.4167 C   0  0  0  0  0  0  0  0  0  0  0  0
    8.1431    7.6829   21.9046 C   0  0  0  0  0  0  0  0  0  0  0  0
    7.7796   10.1314   21.5115 N   0  0  0  0  0  0  0  0  0  0  0  0
    9.2768    5.6183   21.4437 C   0  0  0  0  0  0  0  0  0  0  0  0
    8.6315    7.7322   23.1768 C   0  0  0  0  0  0  0  0  0  0  0  0
   13.0537    9.9821   20.5781 C   0  0  0  0  0  0  0  0  0  0  0  0
   10.3850    4.6575   23.2386 O   0  0  0  0  0  0  0  0  0  0  0  0
    4.2069    6.8450   20.7994 C   0  0  0  0  0  0  0  0  0  0  0  0
    3.0726   10.1043   19.8522 O   0  0  0  0  0  0  0  0  0  0  0  0
    5.5057    7.1196   21.1155 C   0  0  0  0  0  0  0  0  0  0  0  0
    7.0367   11.0229   21.9948 O   0  0  0  0  0  0  0  0  0  0  0  0
  1  8  4  0
  1 12  4  0
  2  9  1  0
  2 11  4  0
  2 25  4  0
  3 12  4  0
  3 14  1  0
  3 23  4  0
  4 13  4  0
  4 21  4  0
  4 24  1  0
  5  8  4  0
  5 23  4  0
  6 18  2  0
  7 15  4  0
  7 16  1  0
  7 27  4  0
  8 18  1  0
 10 18  1  0
 10 20  1  0
 11 15  4  0
 11 26  1  0
 13 22  4  0
 16 19  1  0
 16 20  2  0
 17 19  4  0
 17 21  4  0
 19 22  4  0
 20 28  1  0
 25 27  4  0
M  END
$$$$

 Created by Python create_sdf_string function

 28 30  0  0  0  0  0  0  0  0999 V2000
   11.4592   11.2893   18.7941 C   0  0  0  0  0  0  0  0  0  0  0  0
    3.4202    7.9009   20.3866 C   0  0  0  0  0  0  0  0  0  0  0  0
   13.5280   10.3522   19.3586 C   0  0  0  0  0  0  0  0  0  0  0  0
    9.6923    5.6468   22.7891 C   0  0  0  0  0  0  0  0  0  0  0  0
   11.7756   10.2554   20.8841 N   0  0  0  0  0  0  0  0  0  0  0  0
    8.9876   11.9370   19.8757 O   0  0  0  0  0  0  0  0  0  0  0  0
    6.0167    8.4478   21.1089 C   0  0  0  0  0  0  0  0  0  0  0  0
   11.0002   10.8890   20.0262 C   0  0  0  0  0  0  0  0  0  0  0  0
    2.1721    7.7393   20.0315 O   0  0  0  0  0  0  0  0  0  0  0  0
    9.1107   10.3880   21.3769 N   0  0  0  0  0  0  0  0  0  0  0  0
    3.9102    9.2008   20.3124 C   0  0  0  0  0  0  0  0  0  0  0  0
   12.7292   10.9960   18.4597 C   0  0  0  0  0  0  0  0  0  0  0  0
    9.3798    6.6793   23.6625 C   0  0  0  0  0  0  0  0  0  0  0  0
   14.7425   10.0739   19.0802 O   0  0  0  0  0  0  0  0  0  0  0  0
    5.1894    9.4673   20.7118 C   0  0  0  0  0  0  0  0  0  0  0  0
    7.3773    8.8224   21.4870 C   0  0  0  0  0  0  0  0  0  0  0  0
    8.4391    6.6439   21.0235 C   0  0  0  0  0  0  0  0  0  0  0  0
    9.6494   11.1353   20.4167 C   0  0  0  0  0  0  0  0  0  0  0  0
    8.1431    7.6829   21.9046 C   0  0  0  0  0  0  0  0  0  0  0  0
    7.7796   10.1314   21.5115 N   0  0  0  0  0  0  0  0  0  0  0  0
    9.2768    5.6183   21.4437 C   0  0  0  0  0  0  0  0  0  0  0  0
    8.6315    7.7322   23.1768 C   0  0  0  0  0  0  0  0  0  0  0  0
   13.0537    9.9821   20.5781 C   0  0  0  0  0  0  0  0  0  0  0  0
   10.3850    4.6575   23.2386 O   0  0  0  0  0  0  0  0  0  0  0  0
    4.2069    6.8450   20.7994 C   0  0  0  0  0  0  0  0  0  0  0  0
    3.0726   10.1043   19.8522 O   0  0  0  0  0  0  0  0  0  0  0  0
    5.5057    7.1196   21.1155 C   0  0  0  0  0  0  0  0  0  0  0  0
    7.0367   11.0229   21.9948 O   0  0  0  0  0  0  0  0  0  0  0  0
  1  8  4  0
  1 12  4  0
  2  9  1  0
  2 11  4  0
  2 25  4  0
  3 12  4  0
  3 14  1  0
  3 23  4  0
  4 13  4  0
  4 21  4  0
  4 24  1  0
  5  8  4  0
  5 23  4  0
  6 18  2  0
  7 15  4  0
  7 16  1  0
  7 27  4  0
  8 18  1  0
 10 18  1  0
 10 20  1  0
 11 15  4  0
 11 26  1  0
 13 22  4  0
 16 19  1  0
 16 20  2  0
 17 19  4  0
 17 21  4  0
 19 22  4  0
 20 28  1  0
 25 27  4  0
M  END
$$$$

 Created by Python create_sdf_string function

 28 30  0  0  0  0  0  0  0  0999 V2000
   11.4592   11.2893   18.7941 C   0  0  0  0  0  0  0  0  0  0  0  0
    3.4202    7.9009   20.3866 C   0  0  0  0  0  0  0  0  0  0  0  0
   13.5280   10.3522   19.3586 C   0  0  0  0  0  0  0  0  0  0  0  0
    9.6923    5.6468   22.7891 C   0  0  0  0  0  0  0  0  0  0  0  0
   11.7756   10.2554   20.8841 N   0  0  0  0  0  0  0  0  0  0  0  0
    8.9876   11.9370   19.8757 O   0  0  0  0  0  0  0  0  0  0  0  0
    6.0167    8.4478   21.1089 C   0  0  0  0  0  0  0  0  0  0  0  0
   11.0002   10.8890   20.0262 C   0  0  0  0  0  0  0  0  0  0  0  0
    2.1721    7.7393   20.0315 O   0  0  0  0  0  0  0  0  0  0  0  0
    9.1107   10.3880   21.3769 N   0  0  0  0  0  0  0  0  0  0  0  0
    3.9102    9.2008   20.3124 C   0  0  0  0  0  0  0  0  0  0  0  0
   12.7292   10.9960   18.4597 C   0  0  0  0  0  0  0  0  0  0  0  0
    9.3798    6.6793   23.6625 C   0  0  0  0  0  0  0  0  0  0  0  0
   14.7425   10.0739   19.0802 O   0  0  0  0  0  0  0  0  0  0  0  0
    5.1894    9.4673   20.7118 C   0  0  0  0  0  0  0  0  0  0  0  0
    7.3773    8.8224   21.4870 C   0  0  0  0  0  0  0  0  0  0  0  0
    8.4391    6.6439   21.0235 C   0  0  0  0  0  0  0  0  0  0  0  0
    9.6494   11.1353   20.4167 C   0  0  0  0  0  0  0  0  0  0  0  0
    8.1431    7.6829   21.9046 C   0  0  0  0  0  0  0  0  0  0  0  0
    7.7796   10.1314   21.5115 N   0  0  0  0  0  0  0  0  0  0  0  0
    9.2768    5.6183   21.4437 C   0  0  0  0  0  0  0  0  0  0  0  0
    8.6315    7.7322   23.1768 C   0  0  0  0  0  0  0  0  0  0  0  0
   13.0537    9.9821   20.5781 C   0  0  0  0  0  0  0  0  0  0  0  0
   10.3850    4.6575   23.2386 O   0  0  0  0  0  0  0  0  0  0  0  0
    4.2069    6.8450   20.7994 C   0  0  0  0  0  0  0  0  0  0  0  0
    3.0726   10.1043   19.8522 O   0  0  0  0  0  0  0  0  0  0  0  0
    5.5057    7.1196   21.1155 C   0  0  0  0  0  0  0  0  0  0  0  0
    7.0367   11.0229   21.9948 O   0  0  0  0  0  0  0  0  0  0  0  0
  1  8  4  0
  1 12  4  0
  2  9  1  0
  2 11  4  0
  2 25  4  0
  3 12  4  0
  3 14  1  0
  3 23  4  0
  4 13  4  0
  4 21  4  0
  4 24  1  0
  5  8  4  0
  5 23  4  0
  6 18  2  0
  7 15  4  0
  7 16  1  0
  7 27  4  0
  8 18  1  0
 10 18  1  0
 10 20  1  0
 11 15  4  0
 11 26  1  0
 13 22  4  0
 16 19  1  0
 16 20  2  0
 17 19  4  0
 17 21  4  0
 19 22  4  0
 20 28  1  0
 25 27  4  0
M  END
$$$$

 Created by Python create_sdf_string function

 28 30  0  0  0  0  0  0  0  0999 V2000
   11.4592   11.2893   18.7941 C   0  0  0  0  0  0  0  0  0  0  0  0
    3.4202    7.9009   20.3866 C   0  0  0  0  0  0  0  0  0  0  0  0
   13.5280   10.3522   19.3586 C   0  0  0  0  0  0  0  0  0  0  0  0
    9.6923    5.6468   22.7891 C   0  0  0  0  0  0  0  0  0  0  0  0
   11.7756   10.2554   20.8841 N   0  0  0  0  0  0  0  0  0  0  0  0
    8.9876   11.9370   19.8757 O   0  0  0  0  0  0  0  0  0  0  0  0
    6.0167    8.4478   21.1089 C   0  0  0  0  0  0  0  0  0  0  0  0
   11.0002   10.8890   20.0262 C   0  0  0  0  0  0  0  0  0  0  0  0
    2.1721    7.7393   20.0315 O   0  0  0  0  0  0  0  0  0  0  0  0
    9.1107   10.3880   21.3769 N   0  0  0  0  0  0  0  0  0  0  0  0
    3.9102    9.2008   20.3124 C   0  0  0  0  0  0  0  0  0  0  0  0
   12.7292   10.9960   18.4597 C   0  0  0  0  0  0  0  0  0  0  0  0
    9.3798    6.6793   23.6625 C   0  0  0  0  0  0  0  0  0  0  0  0
   14.7425   10.0739   19.0802 O   0  0  0  0  0  0  0  0  0  0  0  0
    5.1894    9.4673   20.7118 C   0  0  0  0  0  0  0  0  0  0  0  0
    7.3773    8.8224   21.4870 C   0  0  0  0  0  0  0  0  0  0  0  0
    8.4391    6.6439   21.0235 C   0  0  0  0  0  0  0  0  0  0  0  0
    9.6494   11.1353   20.4167 C   0  0  0  0  0  0  0  0  0  0  0  0
    8.1431    7.6829   21.9046 C   0  0  0  0  0  0  0  0  0  0  0  0
    7.7796   10.1314   21.5115 N   0  0  0  0  0  0  0  0  0  0  0  0
    9.2768    5.6183   21.4437 C   0  0  0  0  0  0  0  0  0  0  0  0
    8.6315    7.7322   23.1768 C   0  0  0  0  0  0  0  0  0  0  0  0
   13.0537    9.9821   20.5781 C   0  0  0  0  0  0  0  0  0  0  0  0
   10.3850    4.6575   23.2386 O   0  0  0  0  0  0  0  0  0  0  0  0
    4.2069    6.8450   20.7994 C   0  0  0  0  0  0  0  0  0  0  0  0
    3.0726   10.1043   19.8522 O   0  0  0  0  0  0  0  0  0  0  0  0
    5.5057    7.1196   21.1155 C   0  0  0  0  0  0  0  0  0  0  0  0
    7.0367   11.0229   21.9948 O   0  0  0  0  0  0  0  0  0  0  0  0
  1  8  4  0
  1 12  4  0
  2  9  1  0
  2 11  4  0
  2 25  4  0
  3 12  4  0
  3 14  1  0
  3 23  4  0
  4 13  4  0
  4 21  4  0
  4 24  1  0
  5  8  4  0
  5 23  4  0
  6 18  2  0
  7 15  4  0
  7 16  1  0
  7 27  4  0
  8 18  1  0
 10 18  1  0
 10 20  1  0
 11 15  4  0
 11 26  1  0
 13 22  4  0
 16 19  1  0
 16 20  2  0
 17 19  4  0
 17 21  4  0
 19 22  4  0
 20 28  1  0
 25 27  4  0
M  END
$$$$

 Created by Python create_sdf_string function

 28 30  0  0  0  0  0  0  0  0999 V2000
   11.4592   11.2893   18.7941 C   0  0  0  0  0  0  0  0  0  0  0  0
    3.4202    7.9009   20.3866 C   0  0  0  0  0  0  0  0  0  0  0  0
   13.5280   10.3522   19.3586 C   0  0  0  0  0  0  0  0  0  0  0  0
    9.6923    5.6468   22.7891 C   0  0  0  0  0  0  0  0  0  0  0  0
   11.7756   10.2554   20.8841 N   0  0  0  0  0  0  0  0  0  0  0  0
    8.9876   11.9370   19.8757 O   0  0  0  0  0  0  0  0  0  0  0  0
    6.0167    8.4478   21.1089 C   0  0  0  0  0  0  0  0  0  0  0  0
   11.0002   10.8890   20.0262 C   0  0  0  0  0  0  0  0  0  0  0  0
    2.1721    7.7393   20.0315 O   0  0  0  0  0  0  0  0  0  0  0  0
    9.1107   10.3880   21.3769 N   0  0  0  0  0  0  0  0  0  0  0  0
    3.9102    9.2008   20.3124 C   0  0  0  0  0  0  0  0  0  0  0  0
   12.7292   10.9960   18.4597 C   0  0  0  0  0  0  0  0  0  0  0  0
    9.3798    6.6793   23.6625 C   0  0  0  0  0  0  0  0  0  0  0  0
   14.7425   10.0739   19.0802 O   0  0  0  0  0  0  0  0  0  0  0  0
    5.1894    9.4673   20.7118 C   0  0  0  0  0  0  0  0  0  0  0  0
    7.3773    8.8224   21.4870 C   0  0  0  0  0  0  0  0  0  0  0  0
    8.4391    6.6439   21.0235 C   0  0  0  0  0  0  0  0  0  0  0  0
    9.6494   11.1353   20.4167 C   0  0  0  0  0  0  0  0  0  0  0  0
    8.1431    7.6829   21.9046 C   0  0  0  0  0  0  0  0  0  0  0  0
    7.7796   10.1314   21.5115 N   0  0  0  0  0  0  0  0  0  0  0  0
    9.2768    5.6183   21.4437 C   0  0  0  0  0  0  0  0  0  0  0  0
    8.6315    7.7322   23.1768 C   0  0  0  0  0  0  0  0  0  0  0  0
   13.0537    9.9821   20.5781 C   0  0  0  0  0  0  0  0  0  0  0  0
   10.3850    4.6575   23.2386 O   0  0  0  0  0  0  0  0  0  0  0  0
    4.2069    6.8450   20.7994 C   0  0  0  0  0  0  0  0  0  0  0  0
    3.0726   10.1043   19.8522 O   0  0  0  0  0  0  0  0  0  0  0  0
    5.5057    7.1196   21.1155 C   0  0  0  0  0  0  0  0  0  0  0  0
    7.0367   11.0229   21.9948 O   0  0  0  0  0  0  0  0  0  0  0  0
  1  8  4  0
  1 12  4  0
  2  9  1  0
  2 11  4  0
  2 25  4  0
  3 12  4  0
  3 14  1  0
  3 23  4  0
  4 13  4  0
  4 21  4  0
  4 24  1  0
  5  8  4  0
  5 23  4  0
  6 18  2  0
  7 15  4  0
  7 16  1  0
  7 27  4  0
  8 18  1  0
 10 18  1  0
 10 20  1  0
 11 15  4  0
 11 26  1  0
 13 22  4  0
 16 19  1  0
 16 20  2  0
 17 19  4  0
 17 21  4  0
 19 22  4  0
 20 28  1  0
 25 27  4  0
M  END
$$$$

 Created by Python create_sdf_string function

 28 30  0  0  0  0  0  0  0  0999 V2000
   11.4592   11.2893   18.7941 C   0  0  0  0  0  0  0  0  0  0  0  0
    3.4202    7.9009   20.3866 C   0  0  0  0  0  0  0  0  0  0  0  0
   13.5280   10.3522   19.3586 C   0  0  0  0  0  0  0  0  0  0  0  0
    9.6923    5.6468   22.7891 C   0  0  0  0  0  0  0  0  0  0  0  0
   11.7756   10.2554   20.8841 N   0  0  0  0  0  0  0  0  0  0  0  0
    8.9876   11.9370   19.8757 O   0  0  0  0  0  0  0  0  0  0  0  0
    6.0167    8.4478   21.1089 C   0  0  0  0  0  0  0  0  0  0  0  0
   11.0002   10.8890   20.0262 C   0  0  0  0  0  0  0  0  0  0  0  0
    2.1721    7.7393   20.0315 O   0  0  0  0  0  0  0  0  0  0  0  0
    9.1107   10.3880   21.3769 N   0  0  0  0  0  0  0  0  0  0  0  0
    3.9102    9.2008   20.3124 C   0  0  0  0  0  0  0  0  0  0  0  0
   12.7292   10.9960   18.4597 C   0  0  0  0  0  0  0  0  0  0  0  0
    9.3798    6.6793   23.6625 C   0  0  0  0  0  0  0  0  0  0  0  0
   14.7425   10.0739   19.0802 O   0  0  0  0  0  0  0  0  0  0  0  0
    5.1894    9.4673   20.7118 C   0  0  0  0  0  0  0  0  0  0  0  0
    7.3773    8.8224   21.4870 C   0  0  0  0  0  0  0  0  0  0  0  0
    8.4391    6.6439   21.0235 C   0  0  0  0  0  0  0  0  0  0  0  0
    9.6494   11.1353   20.4167 C   0  0  0  0  0  0  0  0  0  0  0  0
    8.1431    7.6829   21.9046 C   0  0  0  0  0  0  0  0  0  0  0  0
    7.7796   10.1314   21.5115 N   0  0  0  0  0  0  0  0  0  0  0  0
    9.2768    5.6183   21.4437 C   0  0  0  0  0  0  0  0  0  0  0  0
    8.6315    7.7322   23.1768 C   0  0  0  0  0  0  0  0  0  0  0  0
   13.0537    9.9821   20.5781 C   0  0  0  0  0  0  0  0  0  0  0  0
   10.3850    4.6575   23.2386 O   0  0  0  0  0  0  0  0  0  0  0  0
    4.2069    6.8450   20.7994 C   0  0  0  0  0  0  0  0  0  0  0  0
    3.0726   10.1043   19.8522 O   0  0  0  0  0  0  0  0  0  0  0  0
    5.5057    7.1196   21.1155 C   0  0  0  0  0  0  0  0  0  0  0  0
    7.0367   11.0229   21.9948 O   0  0  0  0  0  0  0  0  0  0  0  0
  1  8  4  0
  1 12  4  0
  2  9  1  0
  2 11  4  0
  2 25  4  0
  3 12  4  0
  3 14  1  0
  3 23  4  0
  4 13  4  0
  4 21  4  0
  4 24  1  0
  5  8  4  0
  5 23  4  0
  6 18  2  0
  7 15  4  0
  7 16  1  0
  7 27  4  0
  8 18  1  0
 10 18  1  0
 10 20  1  0
 11 15  4  0
 11 26  1  0
 13 22  4  0
 16 19  1  0
 16 20  2  0
 17 19  4  0
 17 21  4  0
 19 22  4  0
 20 28  1  0
 25 27  4  0
M  END
$$$$

 Created by Python create_sdf_string function

 28 30  0  0  0  0  0  0  0  0999 V2000
   11.4592   11.2893   18.7941 C   0  0  0  0  0  0  0  0  0  0  0  0
    3.4202    7.9009   20.3866 C   0  0  0  0  0  0  0  0  0  0  0  0
   13.5280   10.3522   19.3586 C   0  0  0  0  0  0  0  0  0  0  0  0
    9.6923    5.6468   22.7891 C   0  0  0  0  0  0  0  0  0  0  0  0
   11.7756   10.2554   20.8841 N   0  0  0  0  0  0  0  0  0  0  0  0
    8.9876   11.9370   19.8757 O   0  0  0  0  0  0  0  0  0  0  0  0
    6.0167    8.4478   21.1089 C   0  0  0  0  0  0  0  0  0  0  0  0
   11.0002   10.8890   20.0262 C   0  0  0  0  0  0  0  0  0  0  0  0
    2.1721    7.7393   20.0315 O   0  0  0  0  0  0  0  0  0  0  0  0
    9.1107   10.3880   21.3769 N   0  0  0  0  0  0  0  0  0  0  0  0
    3.9102    9.2008   20.3124 C   0  0  0  0  0  0  0  0  0  0  0  0
   12.7292   10.9960   18.4597 C   0  0  0  0  0  0  0  0  0  0  0  0
    9.3798    6.6793   23.6625 C   0  0  0  0  0  0  0  0  0  0  0  0
   14.7425   10.0739   19.0802 O   0  0  0  0  0  0  0  0  0  0  0  0
    5.1894    9.4673   20.7118 C   0  0  0  0  0  0  0  0  0  0  0  0
    7.3773    8.8224   21.4870 C   0  0  0  0  0  0  0  0  0  0  0  0
    8.4391    6.6439   21.0235 C   0  0  0  0  0  0  0  0  0  0  0  0
    9.6494   11.1353   20.4167 C   0  0  0  0  0  0  0  0  0  0  0  0
    8.1431    7.6829   21.9046 C   0  0  0  0  0  0  0  0  0  0  0  0
    7.7796   10.1314   21.5115 N   0  0  0  0  0  0  0  0  0  0  0  0
    9.2768    5.6183   21.4437 C   0  0  0  0  0  0  0  0  0  0  0  0
    8.6315    7.7322   23.1768 C   0  0  0  0  0  0  0  0  0  0  0  0
   13.0537    9.9821   20.5781 C   0  0  0  0  0  0  0  0  0  0  0  0
   10.3850    4.6575   23.2386 O   0  0  0  0  0  0  0  0  0  0  0  0
    4.2069    6.8450   20.7994 C   0  0  0  0  0  0  0  0  0  0  0  0
    3.0726   10.1043   19.8522 O   0  0  0  0  0  0  0  0  0  0  0  0
    5.5057    7.1196   21.1155 C   0  0  0  0  0  0  0  0  0  0  0  0
    7.0367   11.0229   21.9948 O   0  0  0  0  0  0  0  0  0  0  0  0
  1  8  4  0
  1 12  4  0
  2  9  1  0
  2 11  4  0
  2 25  4  0
  3 12  4  0
  3 14  1  0
  3 23  4  0
  4 13  4  0
  4 21  4  0
  4 24  1  0
  5  8  4  0
  5 23  4  0
  6 18  2  0
  7 15  4  0
  7 16  1  0
  7 27  4  0
  8 18  1  0
 10 18  1  0
 10 20  1  0
 11 15  4  0
 11 26  1  0
 13 22  4  0
 16 19  1  0
 16 20  2  0
 17 19  4  0
 17 21  4  0
 19 22  4  0
 20 28  1  0
 25 27  4  0
M  END
$$$$

 Created by Python create_sdf_string function

 28 30  0  0  0  0  0  0  0  0999 V2000
   11.4592   11.2893   18.7941 C   0  0  0  0  0  0  0  0  0  0  0  0
    3.4202    7.9009   20.3866 C   0  0  0  0  0  0  0  0  0  0  0  0
   13.5280   10.3522   19.3586 C   0  0  0  0  0  0  0  0  0  0  0  0
    9.6923    5.6468   22.7891 C   0  0  0  0  0  0  0  0  0  0  0  0
   11.7756   10.2554   20.8841 N   0  0  0  0  0  0  0  0  0  0  0  0
    8.9876   11.9370   19.8757 O   0  0  0  0  0  0  0  0  0  0  0  0
    6.0167    8.4478   21.1089 C   0  0  0  0  0  0  0  0  0  0  0  0
   11.0002   10.8890   20.0262 C   0  0  0  0  0  0  0  0  0  0  0  0
    2.1721    7.7393   20.0315 O   0  0  0  0  0  0  0  0  0  0  0  0
    9.1107   10.3880   21.3769 N   0  0  0  0  0  0  0  0  0  0  0  0
    3.9102    9.2008   20.3124 C   0  0  0  0  0  0  0  0  0  0  0  0
   12.7292   10.9960   18.4597 C   0  0  0  0  0  0  0  0  0  0  0  0
    9.3798    6.6793   23.6625 C   0  0  0  0  0  0  0  0  0  0  0  0
   14.7425   10.0739   19.0802 O   0  0  0  0  0  0  0  0  0  0  0  0
    5.1894    9.4673   20.7118 C   0  0  0  0  0  0  0  0  0  0  0  0
    7.3773    8.8224   21.4870 C   0  0  0  0  0  0  0  0  0  0  0  0
    8.4391    6.6439   21.0235 C   0  0  0  0  0  0  0  0  0  0  0  0
    9.6494   11.1353   20.4167 C   0  0  0  0  0  0  0  0  0  0  0  0
    8.1431    7.6829   21.9046 C   0  0  0  0  0  0  0  0  0  0  0  0
    7.7796   10.1314   21.5115 N   0  0  0  0  0  0  0  0  0  0  0  0
    9.2768    5.6183   21.4437 C   0  0  0  0  0  0  0  0  0  0  0  0
    8.6315    7.7322   23.1768 C   0  0  0  0  0  0  0  0  0  0  0  0
   13.0537    9.9821   20.5781 C   0  0  0  0  0  0  0  0  0  0  0  0
   10.3850    4.6575   23.2386 O   0  0  0  0  0  0  0  0  0  0  0  0
    4.2069    6.8450   20.7994 C   0  0  0  0  0  0  0  0  0  0  0  0
    3.0726   10.1043   19.8522 O   0  0  0  0  0  0  0  0  0  0  0  0
    5.5057    7.1196   21.1155 C   0  0  0  0  0  0  0  0  0  0  0  0
    7.0367   11.0229   21.9948 O   0  0  0  0  0  0  0  0  0  0  0  0
  1  8  4  0
  1 12  4  0
  2  9  1  0
  2 11  4  0
  2 25  4  0
  3 12  4  0
  3 14  1  0
  3 23  4  0
  4 13  4  0
  4 21  4  0
  4 24  1  0
  5  8  4  0
  5 23  4  0
  6 18  2  0
  7 15  4  0
  7 16  1  0
  7 27  4  0
  8 18  1  0
 10 18  1  0
 10 20  1  0
 11 15  4  0
 11 26  1  0
 13 22  4  0
 16 19  1  0
 16 20  2  0
 17 19  4  0
 17 21  4  0
 19 22  4  0
 20 28  1  0
 25 27  4  0
M  END
$$$$

 Created by Python create_sdf_string function

 28 30  0  0  0  0  0  0  0  0999 V2000
   11.4592   11.2893   18.7941 C   0  0  0  0  0  0  0  0  0  0  0  0
    3.4202    7.9009   20.3866 C   0  0  0  0  0  0  0  0  0  0  0  0
   13.5280   10.3522   19.3586 C   0  0  0  0  0  0  0  0  0  0  0  0
    9.6923    5.6468   22.7891 C   0  0  0  0  0  0  0  0  0  0  0  0
   11.7756   10.2554   20.8841 N   0  0  0  0  0  0  0  0  0  0  0  0
    8.9876   11.9370   19.8757 O   0  0  0  0  0  0  0  0  0  0  0  0
    6.0167    8.4478   21.1089 C   0  0  0  0  0  0  0  0  0  0  0  0
   11.0002   10.8890   20.0262 C   0  0  0  0  0  0  0  0  0  0  0  0
    2.1721    7.7393   20.0315 O   0  0  0  0  0  0  0  0  0  0  0  0
    9.1107   10.3880   21.3769 N   0  0  0  0  0  0  0  0  0  0  0  0
    3.9102    9.2008   20.3124 C   0  0  0  0  0  0  0  0  0  0  0  0
   12.7292   10.9960   18.4597 C   0  0  0  0  0  0  0  0  0  0  0  0
    9.3798    6.6793   23.6625 C   0  0  0  0  0  0  0  0  0  0  0  0
   14.7425   10.0739   19.0802 O   0  0  0  0  0  0  0  0  0  0  0  0
    5.1894    9.4673   20.7118 C   0  0  0  0  0  0  0  0  0  0  0  0
    7.3773    8.8224   21.4870 C   0  0  0  0  0  0  0  0  0  0  0  0
    8.4391    6.6439   21.0235 C   0  0  0  0  0  0  0  0  0  0  0  0
    9.6494   11.1353   20.4167 C   0  0  0  0  0  0  0  0  0  0  0  0
    8.1431    7.6829   21.9046 C   0  0  0  0  0  0  0  0  0  0  0  0
    7.7796   10.1314   21.5115 N   0  0  0  0  0  0  0  0  0  0  0  0
    9.2768    5.6183   21.4437 C   0  0  0  0  0  0  0  0  0  0  0  0
    8.6315    7.7322   23.1768 C   0  0  0  0  0  0  0  0  0  0  0  0
   13.0537    9.9821   20.5781 C   0  0  0  0  0  0  0  0  0  0  0  0
   10.3850    4.6575   23.2386 O   0  0  0  0  0  0  0  0  0  0  0  0
    4.2069    6.8450   20.7994 C   0  0  0  0  0  0  0  0  0  0  0  0
    3.0726   10.1043   19.8522 O   0  0  0  0  0  0  0  0  0  0  0  0
    5.5057    7.1196   21.1155 C   0  0  0  0  0  0  0  0  0  0  0  0
    7.0367   11.0229   21.9948 O   0  0  0  0  0  0  0  0  0  0  0  0
  1  8  4  0
  1 12  4  0
  2  9  1  0
  2 11  4  0
  2 25  4  0
  3 12  4  0
  3 14  1  0
  3 23  4  0
  4 13  4  0
  4 21  4  0
  4 24  1  0
  5  8  4  0
  5 23  4  0
  6 18  2  0
  7 15  4  0
  7 16  1  0
  7 27  4  0
  8 18  1  0
 10 18  1  0
 10 20  1  0
 11 15  4  0
 11 26  1  0
 13 22  4  0
 16 19  1  0
 16 20  2  0
 17 19  4  0
 17 21  4  0
 19 22  4  0
 20 28  1  0
 25 27  4  0
M  END
$$$$

 Created by Python create_sdf_string function

 28 30  0  0  0  0  0  0  0  0999 V2000
   11.4592   11.2893   18.7941 C   0  0  0  0  0  0  0  0  0  0  0  0
    3.4202    7.9009   20.3866 C   0  0  0  0  0  0  0  0  0  0  0  0
   13.5280   10.3522   19.3586 C   0  0  0  0  0  0  0  0  0  0  0  0
    9.6923    5.6468   22.7891 C   0  0  0  0  0  0  0  0  0  0  0  0
   11.7756   10.2554   20.8841 N   0  0  0  0  0  0  0  0  0  0  0  0
    8.9876   11.9370   19.8757 O   0  0  0  0  0  0  0  0  0  0  0  0
    6.0167    8.4478   21.1089 C   0  0  0  0  0  0  0  0  0  0  0  0
   11.0002   10.8890   20.0262 C   0  0  0  0  0  0  0  0  0  0  0  0
    2.1721    7.7393   20.0315 O   0  0  0  0  0  0  0  0  0  0  0  0
    9.1107   10.3880   21.3769 N   0  0  0  0  0  0  0  0  0  0  0  0
    3.9102    9.2008   20.3124 C   0  0  0  0  0  0  0  0  0  0  0  0
   12.7292   10.9960   18.4597 C   0  0  0  0  0  0  0  0  0  0  0  0
    9.3798    6.6793   23.6625 C   0  0  0  0  0  0  0  0  0  0  0  0
   14.7425   10.0739   19.0802 O   0  0  0  0  0  0  0  0  0  0  0  0
    5.1894    9.4673   20.7118 C   0  0  0  0  0  0  0  0  0  0  0  0
    7.3773    8.8224   21.4870 C   0  0  0  0  0  0  0  0  0  0  0  0
    8.4391    6.6439   21.0235 C   0  0  0  0  0  0  0  0  0  0  0  0
    9.6494   11.1353   20.4167 C   0  0  0  0  0  0  0  0  0  0  0  0
    8.1431    7.6829   21.9046 C   0  0  0  0  0  0  0  0  0  0  0  0
    7.7796   10.1314   21.5115 N   0  0  0  0  0  0  0  0  0  0  0  0
    9.2768    5.6183   21.4437 C   0  0  0  0  0  0  0  0  0  0  0  0
    8.6315    7.7322   23.1768 C   0  0  0  0  0  0  0  0  0  0  0  0
   13.0537    9.9821   20.5781 C   0  0  0  0  0  0  0  0  0  0  0  0
   10.3850    4.6575   23.2386 O   0  0  0  0  0  0  0  0  0  0  0  0
    4.2069    6.8450   20.7994 C   0  0  0  0  0  0  0  0  0  0  0  0
    3.0726   10.1043   19.8522 O   0  0  0  0  0  0  0  0  0  0  0  0
    5.5057    7.1196   21.1155 C   0  0  0  0  0  0  0  0  0  0  0  0
    7.0367   11.0229   21.9948 O   0  0  0  0  0  0  0  0  0  0  0  0
  1  8  4  0
  1 12  4  0
  2  9  1  0
  2 11  4  0
  2 25  4  0
  3 12  4  0
  3 14  1  0
  3 23  4  0
  4 13  4  0
  4 21  4  0
  4 24  1  0
  5  8  4  0
  5 23  4  0
  6 18  2  0
  7 15  4  0
  7 16  1  0
  7 27  4  0
  8 18  1  0
 10 18  1  0
 10 20  1  0
 11 15  4  0
 11 26  1  0
 13 22  4  0
 16 19  1  0
 16 20  2  0
 17 19  4  0
 17 21  4  0
 19 22  4  0
 20 28  1  0
 25 27  4  0
M  END
$$$$

 Created by Python create_sdf_string function

 28 30  0  0  0  0  0  0  0  0999 V2000
   11.4592   11.2893   18.7941 C   0  0  0  0  0  0  0  0  0  0  0  0
    3.4202    7.9009   20.3866 C   0  0  0  0  0  0  0  0  0  0  0  0
   13.5280   10.3522   19.3586 C   0  0  0  0  0  0  0  0  0  0  0  0
    9.6923    5.6468   22.7891 C   0  0  0  0  0  0  0  0  0  0  0  0
   11.7756   10.2554   20.8841 N   0  0  0  0  0  0  0  0  0  0  0  0
    8.9876   11.9370   19.8757 O   0  0  0  0  0  0  0  0  0  0  0  0
    6.0167    8.4478   21.1089 C   0  0  0  0  0  0  0  0  0  0  0  0
   11.0002   10.8890   20.0262 C   0  0  0  0  0  0  0  0  0  0  0  0
    2.1721    7.7393   20.0315 O   0  0  0  0  0  0  0  0  0  0  0  0
    9.1107   10.3880   21.3769 N   0  0  0  0  0  0  0  0  0  0  0  0
    3.9102    9.2008   20.3124 C   0  0  0  0  0  0  0  0  0  0  0  0
   12.7292   10.9960   18.4597 C   0  0  0  0  0  0  0  0  0  0  0  0
    9.3798    6.6793   23.6625 C   0  0  0  0  0  0  0  0  0  0  0  0
   14.7425   10.0739   19.0802 O   0  0  0  0  0  0  0  0  0  0  0  0
    5.1894    9.4673   20.7118 C   0  0  0  0  0  0  0  0  0  0  0  0
    7.3773    8.8224   21.4870 C   0  0  0  0  0  0  0  0  0  0  0  0
    8.4391    6.6439   21.0235 C   0  0  0  0  0  0  0  0  0  0  0  0
    9.6494   11.1353   20.4167 C   0  0  0  0  0  0  0  0  0  0  0  0
    8.1431    7.6829   21.9046 C   0  0  0  0  0  0  0  0  0  0  0  0
    7.7796   10.1314   21.5115 N   0  0  0  0  0  0  0  0  0  0  0  0
    9.2768    5.6183   21.4437 C   0  0  0  0  0  0  0  0  0  0  0  0
    8.6315    7.7322   23.1768 C   0  0  0  0  0  0  0  0  0  0  0  0
   13.0537    9.9821   20.5781 C   0  0  0  0  0  0  0  0  0  0  0  0
   10.3850    4.6575   23.2386 O   0  0  0  0  0  0  0  0  0  0  0  0
    4.2069    6.8450   20.7994 C   0  0  0  0  0  0  0  0  0  0  0  0
    3.0726   10.1043   19.8522 O   0  0  0  0  0  0  0  0  0  0  0  0
    5.5057    7.1196   21.1155 C   0  0  0  0  0  0  0  0  0  0  0  0
    7.0367   11.0229   21.9948 O   0  0  0  0  0  0  0  0  0  0  0  0
  1  8  4  0
  1 12  4  0
  2  9  1  0
  2 11  4  0
  2 25  4  0
  3 12  4  0
  3 14  1  0
  3 23  4  0
  4 13  4  0
  4 21  4  0
  4 24  1  0
  5  8  4  0
  5 23  4  0
  6 18  2  0
  7 15  4  0
  7 16  1  0
  7 27  4  0
  8 18  1  0
 10 18  1  0
 10 20  1  0
 11 15  4  0
 11 26  1  0
 13 22  4  0
 16 19  1  0
 16 20  2  0
 17 19  4  0
 17 21  4  0
 19 22  4  0
 20 28  1  0
 25 27  4  0
M  END
$$$$

 Created by Python create_sdf_string function

 28 30  0  0  0  0  0  0  0  0999 V2000
   11.4592   11.2893   18.7941 C   0  0  0  0  0  0  0  0  0  0  0  0
    3.4202    7.9009   20.3866 C   0  0  0  0  0  0  0  0  0  0  0  0
   13.5280   10.3522   19.3586 C   0  0  0  0  0  0  0  0  0  0  0  0
    9.6923    5.6468   22.7891 C   0  0  0  0  0  0  0  0  0  0  0  0
   11.7756   10.2554   20.8841 N   0  0  0  0  0  0  0  0  0  0  0  0
    8.9876   11.9370   19.8757 O   0  0  0  0  0  0  0  0  0  0  0  0
    6.0167    8.4478   21.1089 C   0  0  0  0  0  0  0  0  0  0  0  0
   11.0002   10.8890   20.0262 C   0  0  0  0  0  0  0  0  0  0  0  0
    2.1721    7.7393   20.0315 O   0  0  0  0  0  0  0  0  0  0  0  0
    9.1107   10.3880   21.3769 N   0  0  0  0  0  0  0  0  0  0  0  0
    3.9102    9.2008   20.3124 C   0  0  0  0  0  0  0  0  0  0  0  0
   12.7292   10.9960   18.4597 C   0  0  0  0  0  0  0  0  0  0  0  0
    9.3798    6.6793   23.6625 C   0  0  0  0  0  0  0  0  0  0  0  0
   14.7425   10.0739   19.0802 O   0  0  0  0  0  0  0  0  0  0  0  0
    5.1894    9.4673   20.7118 C   0  0  0  0  0  0  0  0  0  0  0  0
    7.3773    8.8224   21.4870 C   0  0  0  0  0  0  0  0  0  0  0  0
    8.4391    6.6439   21.0235 C   0  0  0  0  0  0  0  0  0  0  0  0
    9.6494   11.1353   20.4167 C   0  0  0  0  0  0  0  0  0  0  0  0
    8.1431    7.6829   21.9046 C   0  0  0  0  0  0  0  0  0  0  0  0
    7.7796   10.1314   21.5115 N   0  0  0  0  0  0  0  0  0  0  0  0
    9.2768    5.6183   21.4437 C   0  0  0  0  0  0  0  0  0  0  0  0
    8.6315    7.7322   23.1768 C   0  0  0  0  0  0  0  0  0  0  0  0
   13.0537    9.9821   20.5781 C   0  0  0  0  0  0  0  0  0  0  0  0
   10.3850    4.6575   23.2386 O   0  0  0  0  0  0  0  0  0  0  0  0
    4.2069    6.8450   20.7994 C   0  0  0  0  0  0  0  0  0  0  0  0
    3.0726   10.1043   19.8522 O   0  0  0  0  0  0  0  0  0  0  0  0
    5.5057    7.1196   21.1155 C   0  0  0  0  0  0  0  0  0  0  0  0
    7.0367   11.0229   21.9948 O   0  0  0  0  0  0  0  0  0  0  0  0
  1  8  4  0
  1 12  4  0
  2  9  1  0
  2 11  4  0
  2 25  4  0
  3 12  4  0
  3 14  1  0
  3 23  4  0
  4 13  4  0
  4 21  4  0
  4 24  1  0
  5  8  4  0
  5 23  4  0
  6 18  2  0
  7 15  4  0
  7 16  1  0
  7 27  4  0
  8 18  1  0
 10 18  1  0
 10 20  1  0
 11 15  4  0
 11 26  1  0
 13 22  4  0
 16 19  1  0
 16 20  2  0
 17 19  4  0
 17 21  4  0
 19 22  4  0
 20 28  1  0
 25 27  4  0
M  END
$$$$

 Created by Python create_sdf_string function

 28 30  0  0  0  0  0  0  0  0999 V2000
   11.4592   11.2893   18.7941 C   0  0  0  0  0  0  0  0  0  0  0  0
    3.4202    7.9009   20.3866 C   0  0  0  0  0  0  0  0  0  0  0  0
   13.5280   10.3522   19.3586 C   0  0  0  0  0  0  0  0  0  0  0  0
    9.6923    5.6468   22.7891 C   0  0  0  0  0  0  0  0  0  0  0  0
   11.7756   10.2554   20.8841 N   0  0  0  0  0  0  0  0  0  0  0  0
    8.9876   11.9370   19.8757 O   0  0  0  0  0  0  0  0  0  0  0  0
    6.0167    8.4478   21.1089 C   0  0  0  0  0  0  0  0  0  0  0  0
   11.0002   10.8890   20.0262 C   0  0  0  0  0  0  0  0  0  0  0  0
    2.1721    7.7393   20.0315 O   0  0  0  0  0  0  0  0  0  0  0  0
    9.1107   10.3880   21.3769 N   0  0  0  0  0  0  0  0  0  0  0  0
    3.9102    9.2008   20.3124 C   0  0  0  0  0  0  0  0  0  0  0  0
   12.7292   10.9960   18.4597 C   0  0  0  0  0  0  0  0  0  0  0  0
    9.3798    6.6793   23.6625 C   0  0  0  0  0  0  0  0  0  0  0  0
   14.7425   10.0739   19.0802 O   0  0  0  0  0  0  0  0  0  0  0  0
    5.1894    9.4673   20.7118 C   0  0  0  0  0  0  0  0  0  0  0  0
    7.3773    8.8224   21.4870 C   0  0  0  0  0  0  0  0  0  0  0  0
    8.4391    6.6439   21.0235 C   0  0  0  0  0  0  0  0  0  0  0  0
    9.6494   11.1353   20.4167 C   0  0  0  0  0  0  0  0  0  0  0  0
    8.1431    7.6829   21.9046 C   0  0  0  0  0  0  0  0  0  0  0  0
    7.7796   10.1314   21.5115 N   0  0  0  0  0  0  0  0  0  0  0  0
    9.2768    5.6183   21.4437 C   0  0  0  0  0  0  0  0  0  0  0  0
    8.6315    7.7322   23.1768 C   0  0  0  0  0  0  0  0  0  0  0  0
   13.0537    9.9821   20.5781 C   0  0  0  0  0  0  0  0  0  0  0  0
   10.3850    4.6575   23.2386 O   0  0  0  0  0  0  0  0  0  0  0  0
    4.2069    6.8450   20.7994 C   0  0  0  0  0  0  0  0  0  0  0  0
    3.0726   10.1043   19.8522 O   0  0  0  0  0  0  0  0  0  0  0  0
    5.5057    7.1196   21.1155 C   0  0  0  0  0  0  0  0  0  0  0  0
    7.0367   11.0229   21.9948 O   0  0  0  0  0  0  0  0  0  0  0  0
  1  8  4  0
  1 12  4  0
  2  9  1  0
  2 11  4  0
  2 25  4  0
  3 12  4  0
  3 14  1  0
  3 23  4  0
  4 13  4  0
  4 21  4  0
  4 24  1  0
  5  8  4  0
  5 23  4  0
  6 18  2  0
  7 15  4  0
  7 16  1  0
  7 27  4  0
  8 18  1  0
 10 18  1  0
 10 20  1  0
 11 15  4  0
 11 26  1  0
 13 22  4  0
 16 19  1  0
 16 20  2  0
 17 19  4  0
 17 21  4  0
 19 22  4  0
 20 28  1  0
 25 27  4  0
M  END
$$$$

 Created by Python create_sdf_string function

 28 30  0  0  0  0  0  0  0  0999 V2000
   11.4592   11.2893   18.7941 C   0  0  0  0  0  0  0  0  0  0  0  0
    3.4202    7.9009   20.3866 C   0  0  0  0  0  0  0  0  0  0  0  0
   13.5280   10.3522   19.3586 C   0  0  0  0  0  0  0  0  0  0  0  0
    9.6923    5.6468   22.7891 C   0  0  0  0  0  0  0  0  0  0  0  0
   11.7756   10.2554   20.8841 N   0  0  0  0  0  0  0  0  0  0  0  0
    8.9876   11.9370   19.8757 O   0  0  0  0  0  0  0  0  0  0  0  0
    6.0167    8.4478   21.1089 C   0  0  0  0  0  0  0  0  0  0  0  0
   11.0002   10.8890   20.0262 C   0  0  0  0  0  0  0  0  0  0  0  0
    2.1721    7.7393   20.0315 O   0  0  0  0  0  0  0  0  0  0  0  0
    9.1107   10.3880   21.3769 N   0  0  0  0  0  0  0  0  0  0  0  0
    3.9102    9.2008   20.3124 C   0  0  0  0  0  0  0  0  0  0  0  0
   12.7292   10.9960   18.4597 C   0  0  0  0  0  0  0  0  0  0  0  0
    9.3798    6.6793   23.6625 C   0  0  0  0  0  0  0  0  0  0  0  0
   14.7425   10.0739   19.0802 O   0  0  0  0  0  0  0  0  0  0  0  0
    5.1894    9.4673   20.7118 C   0  0  0  0  0  0  0  0  0  0  0  0
    7.3773    8.8224   21.4870 C   0  0  0  0  0  0  0  0  0  0  0  0
    8.4391    6.6439   21.0235 C   0  0  0  0  0  0  0  0  0  0  0  0
    9.6494   11.1353   20.4167 C   0  0  0  0  0  0  0  0  0  0  0  0
    8.1431    7.6829   21.9046 C   0  0  0  0  0  0  0  0  0  0  0  0
    7.7796   10.1314   21.5115 N   0  0  0  0  0  0  0  0  0  0  0  0
    9.2768    5.6183   21.4437 C   0  0  0  0  0  0  0  0  0  0  0  0
    8.6315    7.7322   23.1768 C   0  0  0  0  0  0  0  0  0  0  0  0
   13.0537    9.9821   20.5781 C   0  0  0  0  0  0  0  0  0  0  0  0
   10.3850    4.6575   23.2386 O   0  0  0  0  0  0  0  0  0  0  0  0
    4.2069    6.8450   20.7994 C   0  0  0  0  0  0  0  0  0  0  0  0
    3.0726   10.1043   19.8522 O   0  0  0  0  0  0  0  0  0  0  0  0
    5.5057    7.1196   21.1155 C   0  0  0  0  0  0  0  0  0  0  0  0
    7.0367   11.0229   21.9948 O   0  0  0  0  0  0  0  0  0  0  0  0
  1  8  4  0
  1 12  4  0
  2  9  1  0
  2 11  4  0
  2 25  4  0
  3 12  4  0
  3 14  1  0
  3 23  4  0
  4 13  4  0
  4 21  4  0
  4 24  1  0
  5  8  4  0
  5 23  4  0
  6 18  2  0
  7 15  4  0
  7 16  1  0
  7 27  4  0
  8 18  1  0
 10 18  1  0
 10 20  1  0
 11 15  4  0
 11 26  1  0
 13 22  4  0
 16 19  1  0
 16 20  2  0
 17 19  4  0
 17 21  4  0
 19 22  4  0
 20 28  1  0
 25 27  4  0
M  END
$$$$

 Created by Python create_sdf_string function

 28 30  0  0  0  0  0  0  0  0999 V2000
   11.4592   11.2893   18.7941 C   0  0  0  0  0  0  0  0  0  0  0  0
    3.4202    7.9009   20.3866 C   0  0  0  0  0  0  0  0  0  0  0  0
   13.5280   10.3522   19.3586 C   0  0  0  0  0  0  0  0  0  0  0  0
    9.6923    5.6468   22.7891 C   0  0  0  0  0  0  0  0  0  0  0  0
   11.7756   10.2554   20.8841 N   0  0  0  0  0  0  0  0  0  0  0  0
    8.9876   11.9370   19.8757 O   0  0  0  0  0  0  0  0  0  0  0  0
    6.0167    8.4478   21.1089 C   0  0  0  0  0  0  0  0  0  0  0  0
   11.0002   10.8890   20.0262 C   0  0  0  0  0  0  0  0  0  0  0  0
    2.1721    7.7393   20.0315 O   0  0  0  0  0  0  0  0  0  0  0  0
    9.1107   10.3880   21.3769 N   0  0  0  0  0  0  0  0  0  0  0  0
    3.9102    9.2008   20.3124 C   0  0  0  0  0  0  0  0  0  0  0  0
   12.7292   10.9960   18.4597 C   0  0  0  0  0  0  0  0  0  0  0  0
    9.3798    6.6793   23.6625 C   0  0  0  0  0  0  0  0  0  0  0  0
   14.7425   10.0739   19.0802 O   0  0  0  0  0  0  0  0  0  0  0  0
    5.1894    9.4673   20.7118 C   0  0  0  0  0  0  0  0  0  0  0  0
    7.3773    8.8224   21.4870 C   0  0  0  0  0  0  0  0  0  0  0  0
    8.4391    6.6439   21.0235 C   0  0  0  0  0  0  0  0  0  0  0  0
    9.6494   11.1353   20.4167 C   0  0  0  0  0  0  0  0  0  0  0  0
    8.1431    7.6829   21.9046 C   0  0  0  0  0  0  0  0  0  0  0  0
    7.7796   10.1314   21.5115 N   0  0  0  0  0  0  0  0  0  0  0  0
    9.2768    5.6183   21.4437 C   0  0  0  0  0  0  0  0  0  0  0  0
    8.6315    7.7322   23.1768 C   0  0  0  0  0  0  0  0  0  0  0  0
   13.0537    9.9821   20.5781 C   0  0  0  0  0  0  0  0  0  0  0  0
   10.3850    4.6575   23.2386 O   0  0  0  0  0  0  0  0  0  0  0  0
    4.2069    6.8450   20.7994 C   0  0  0  0  0  0  0  0  0  0  0  0
    3.0726   10.1043   19.8522 O   0  0  0  0  0  0  0  0  0  0  0  0
    5.5057    7.1196   21.1155 C   0  0  0  0  0  0  0  0  0  0  0  0
    7.0367   11.0229   21.9948 O   0  0  0  0  0  0  0  0  0  0  0  0
  1  8  4  0
  1 12  4  0
  2  9  1  0
  2 11  4  0
  2 25  4  0
  3 12  4  0
  3 14  1  0
  3 23  4  0
  4 13  4  0
  4 21  4  0
  4 24  1  0
  5  8  4  0
  5 23  4  0
  6 18  2  0
  7 15  4  0
  7 16  1  0
  7 27  4  0
  8 18  1  0
 10 18  1  0
 10 20  1  0
 11 15  4  0
 11 26  1  0
 13 22  4  0
 16 19  1  0
 16 20  2  0
 17 19  4  0
 17 21  4  0
 19 22  4  0
 20 28  1  0
 25 27  4  0
M  END
$$$$

 Created by Python create_sdf_string function

 28 30  0  0  0  0  0  0  0  0999 V2000
   11.4592   11.2893   18.7941 C   0  0  0  0  0  0  0  0  0  0  0  0
    3.4202    7.9009   20.3866 C   0  0  0  0  0  0  0  0  0  0  0  0
   13.5280   10.3522   19.3586 C   0  0  0  0  0  0  0  0  0  0  0  0
    9.6923    5.6468   22.7891 C   0  0  0  0  0  0  0  0  0  0  0  0
   11.7756   10.2554   20.8841 N   0  0  0  0  0  0  0  0  0  0  0  0
    8.9876   11.9370   19.8757 O   0  0  0  0  0  0  0  0  0  0  0  0
    6.0167    8.4478   21.1089 C   0  0  0  0  0  0  0  0  0  0  0  0
   11.0002   10.8890   20.0262 C   0  0  0  0  0  0  0  0  0  0  0  0
    2.1721    7.7393   20.0315 O   0  0  0  0  0  0  0  0  0  0  0  0
    9.1107   10.3880   21.3769 N   0  0  0  0  0  0  0  0  0  0  0  0
    3.9102    9.2008   20.3124 C   0  0  0  0  0  0  0  0  0  0  0  0
   12.7292   10.9960   18.4597 C   0  0  0  0  0  0  0  0  0  0  0  0
    9.3798    6.6793   23.6625 C   0  0  0  0  0  0  0  0  0  0  0  0
   14.7425   10.0739   19.0802 O   0  0  0  0  0  0  0  0  0  0  0  0
    5.1894    9.4673   20.7118 C   0  0  0  0  0  0  0  0  0  0  0  0
    7.3773    8.8224   21.4870 C   0  0  0  0  0  0  0  0  0  0  0  0
    8.4391    6.6439   21.0235 C   0  0  0  0  0  0  0  0  0  0  0  0
    9.6494   11.1353   20.4167 C   0  0  0  0  0  0  0  0  0  0  0  0
    8.1431    7.6829   21.9046 C   0  0  0  0  0  0  0  0  0  0  0  0
    7.7796   10.1314   21.5115 N   0  0  0  0  0  0  0  0  0  0  0  0
    9.2768    5.6183   21.4437 C   0  0  0  0  0  0  0  0  0  0  0  0
    8.6315    7.7322   23.1768 C   0  0  0  0  0  0  0  0  0  0  0  0
   13.0537    9.9821   20.5781 C   0  0  0  0  0  0  0  0  0  0  0  0
   10.3850    4.6575   23.2386 O   0  0  0  0  0  0  0  0  0  0  0  0
    4.2069    6.8450   20.7994 C   0  0  0  0  0  0  0  0  0  0  0  0
    3.0726   10.1043   19.8522 O   0  0  0  0  0  0  0  0  0  0  0  0
    5.5057    7.1196   21.1155 C   0  0  0  0  0  0  0  0  0  0  0  0
    7.0367   11.0229   21.9948 O   0  0  0  0  0  0  0  0  0  0  0  0
  1  8  4  0
  1 12  4  0
  2  9  1  0
  2 11  4  0
  2 25  4  0
  3 12  4  0
  3 14  1  0
  3 23  4  0
  4 13  4  0
  4 21  4  0
  4 24  1  0
  5  8  4  0
  5 23  4  0
  6 18  2  0
  7 15  4  0
  7 16  1  0
  7 27  4  0
  8 18  1  0
 10 18  1  0
 10 20  1  0
 11 15  4  0
 11 26  1  0
 13 22  4  0
 16 19  1  0
 16 20  2  0
 17 19  4  0
 17 21  4  0
 19 22  4  0
 20 28  1  0
 25 27  4  0
M  END
$$$$

 Created by Python create_sdf_string function

 28 30  0  0  0  0  0  0  0  0999 V2000
   11.4592   11.2893   18.7941 C   0  0  0  0  0  0  0  0  0  0  0  0
    3.4202    7.9009   20.3866 C   0  0  0  0  0  0  0  0  0  0  0  0
   13.5280   10.3522   19.3586 C   0  0  0  0  0  0  0  0  0  0  0  0
    9.6923    5.6468   22.7891 C   0  0  0  0  0  0  0  0  0  0  0  0
   11.7756   10.2554   20.8841 N   0  0  0  0  0  0  0  0  0  0  0  0
    8.9876   11.9370   19.8757 O   0  0  0  0  0  0  0  0  0  0  0  0
    6.0167    8.4478   21.1089 C   0  0  0  0  0  0  0  0  0  0  0  0
   11.0002   10.8890   20.0262 C   0  0  0  0  0  0  0  0  0  0  0  0
    2.1721    7.7393   20.0315 O   0  0  0  0  0  0  0  0  0  0  0  0
    9.1107   10.3880   21.3769 N   0  0  0  0  0  0  0  0  0  0  0  0
    3.9102    9.2008   20.3124 C   0  0  0  0  0  0  0  0  0  0  0  0
   12.7292   10.9960   18.4597 C   0  0  0  0  0  0  0  0  0  0  0  0
    9.3798    6.6793   23.6625 C   0  0  0  0  0  0  0  0  0  0  0  0
   14.7425   10.0739   19.0802 O   0  0  0  0  0  0  0  0  0  0  0  0
    5.1894    9.4673   20.7118 C   0  0  0  0  0  0  0  0  0  0  0  0
    7.3773    8.8224   21.4870 C   0  0  0  0  0  0  0  0  0  0  0  0
    8.4391    6.6439   21.0235 C   0  0  0  0  0  0  0  0  0  0  0  0
    9.6494   11.1353   20.4167 C   0  0  0  0  0  0  0  0  0  0  0  0
    8.1431    7.6829   21.9046 C   0  0  0  0  0  0  0  0  0  0  0  0
    7.7796   10.1314   21.5115 N   0  0  0  0  0  0  0  0  0  0  0  0
    9.2768    5.6183   21.4437 C   0  0  0  0  0  0  0  0  0  0  0  0
    8.6315    7.7322   23.1768 C   0  0  0  0  0  0  0  0  0  0  0  0
   13.0537    9.9821   20.5781 C   0  0  0  0  0  0  0  0  0  0  0  0
   10.3850    4.6575   23.2386 O   0  0  0  0  0  0  0  0  0  0  0  0
    4.2069    6.8450   20.7994 C   0  0  0  0  0  0  0  0  0  0  0  0
    3.0726   10.1043   19.8522 O   0  0  0  0  0  0  0  0  0  0  0  0
    5.5057    7.1196   21.1155 C   0  0  0  0  0  0  0  0  0  0  0  0
    7.0367   11.0229   21.9948 O   0  0  0  0  0  0  0  0  0  0  0  0
  1  8  4  0
  1 12  4  0
  2  9  1  0
  2 11  4  0
  2 25  4  0
  3 12  4  0
  3 14  1  0
  3 23  4  0
  4 13  4  0
  4 21  4  0
  4 24  1  0
  5  8  4  0
  5 23  4  0
  6 18  2  0
  7 15  4  0
  7 16  1  0
  7 27  4  0
  8 18  1  0
 10 18  1  0
 10 20  1  0
 11 15  4  0
 11 26  1  0
 13 22  4  0
 16 19  1  0
 16 20  2  0
 17 19  4  0
 17 21  4  0
 19 22  4  0
 20 28  1  0
 25 27  4  0
M  END
$$$$

 Created by Python create_sdf_string function

 28 30  0  0  0  0  0  0  0  0999 V2000
   11.4592   11.2893   18.7941 C   0  0  0  0  0  0  0  0  0  0  0  0
    3.4202    7.9009   20.3866 C   0  0  0  0  0  0  0  0  0  0  0  0
   13.5280   10.3522   19.3586 C   0  0  0  0  0  0  0  0  0  0  0  0
    9.6923    5.6468   22.7891 C   0  0  0  0  0  0  0  0  0  0  0  0
   11.7756   10.2554   20.8841 N   0  0  0  0  0  0  0  0  0  0  0  0
    8.9876   11.9370   19.8757 O   0  0  0  0  0  0  0  0  0  0  0  0
    6.0167    8.4478   21.1089 C   0  0  0  0  0  0  0  0  0  0  0  0
   11.0002   10.8890   20.0262 C   0  0  0  0  0  0  0  0  0  0  0  0
    2.1721    7.7393   20.0315 O   0  0  0  0  0  0  0  0  0  0  0  0
    9.1107   10.3880   21.3769 N   0  0  0  0  0  0  0  0  0  0  0  0
    3.9102    9.2008   20.3124 C   0  0  0  0  0  0  0  0  0  0  0  0
   12.7292   10.9960   18.4597 C   0  0  0  0  0  0  0  0  0  0  0  0
    9.3798    6.6793   23.6625 C   0  0  0  0  0  0  0  0  0  0  0  0
   14.7425   10.0739   19.0802 O   0  0  0  0  0  0  0  0  0  0  0  0
    5.1894    9.4673   20.7118 C   0  0  0  0  0  0  0  0  0  0  0  0
    7.3773    8.8224   21.4870 C   0  0  0  0  0  0  0  0  0  0  0  0
    8.4391    6.6439   21.0235 C   0  0  0  0  0  0  0  0  0  0  0  0
    9.6494   11.1353   20.4167 C   0  0  0  0  0  0  0  0  0  0  0  0
    8.1431    7.6829   21.9046 C   0  0  0  0  0  0  0  0  0  0  0  0
    7.7796   10.1314   21.5115 N   0  0  0  0  0  0  0  0  0  0  0  0
    9.2768    5.6183   21.4437 C   0  0  0  0  0  0  0  0  0  0  0  0
    8.6315    7.7322   23.1768 C   0  0  0  0  0  0  0  0  0  0  0  0
   13.0537    9.9821   20.5781 C   0  0  0  0  0  0  0  0  0  0  0  0
   10.3850    4.6575   23.2386 O   0  0  0  0  0  0  0  0  0  0  0  0
    4.2069    6.8450   20.7994 C   0  0  0  0  0  0  0  0  0  0  0  0
    3.0726   10.1043   19.8522 O   0  0  0  0  0  0  0  0  0  0  0  0
    5.5057    7.1196   21.1155 C   0  0  0  0  0  0  0  0  0  0  0  0
    7.0367   11.0229   21.9948 O   0  0  0  0  0  0  0  0  0  0  0  0
  1  8  4  0
  1 12  4  0
  2  9  1  0
  2 11  4  0
  2 25  4  0
  3 12  4  0
  3 14  1  0
  3 23  4  0
  4 13  4  0
  4 21  4  0
  4 24  1  0
  5  8  4  0
  5 23  4  0
  6 18  2  0
  7 15  4  0
  7 16  1  0
  7 27  4  0
  8 18  1  0
 10 18  1  0
 10 20  1  0
 11 15  4  0
 11 26  1  0
 13 22  4  0
 16 19  1  0
 16 20  2  0
 17 19  4  0
 17 21  4  0
 19 22  4  0
 20 28  1  0
 25 27  4  0
M  END
$$$$

 Created by Python create_sdf_string function

 28 30  0  0  0  0  0  0  0  0999 V2000
   11.4592   11.2893   18.7941 C   0  0  0  0  0  0  0  0  0  0  0  0
    3.4202    7.9009   20.3866 C   0  0  0  0  0  0  0  0  0  0  0  0
   13.5280   10.3522   19.3586 C   0  0  0  0  0  0  0  0  0  0  0  0
    9.6923    5.6468   22.7891 C   0  0  0  0  0  0  0  0  0  0  0  0
   11.7756   10.2554   20.8841 N   0  0  0  0  0  0  0  0  0  0  0  0
    8.9876   11.9370   19.8757 O   0  0  0  0  0  0  0  0  0  0  0  0
    6.0167    8.4478   21.1089 C   0  0  0  0  0  0  0  0  0  0  0  0
   11.0002   10.8890   20.0262 C   0  0  0  0  0  0  0  0  0  0  0  0
    2.1721    7.7393   20.0315 O   0  0  0  0  0  0  0  0  0  0  0  0
    9.1107   10.3880   21.3769 N   0  0  0  0  0  0  0  0  0  0  0  0
    3.9102    9.2008   20.3124 C   0  0  0  0  0  0  0  0  0  0  0  0
   12.7292   10.9960   18.4597 C   0  0  0  0  0  0  0  0  0  0  0  0
    9.3798    6.6793   23.6625 C   0  0  0  0  0  0  0  0  0  0  0  0
   14.7425   10.0739   19.0802 O   0  0  0  0  0  0  0  0  0  0  0  0
    5.1894    9.4673   20.7118 C   0  0  0  0  0  0  0  0  0  0  0  0
    7.3773    8.8224   21.4870 C   0  0  0  0  0  0  0  0  0  0  0  0
    8.4391    6.6439   21.0235 C   0  0  0  0  0  0  0  0  0  0  0  0
    9.6494   11.1353   20.4167 C   0  0  0  0  0  0  0  0  0  0  0  0
    8.1431    7.6829   21.9046 C   0  0  0  0  0  0  0  0  0  0  0  0
    7.7796   10.1314   21.5115 N   0  0  0  0  0  0  0  0  0  0  0  0
    9.2768    5.6183   21.4437 C   0  0  0  0  0  0  0  0  0  0  0  0
    8.6315    7.7322   23.1768 C   0  0  0  0  0  0  0  0  0  0  0  0
   13.0537    9.9821   20.5781 C   0  0  0  0  0  0  0  0  0  0  0  0
   10.3850    4.6575   23.2386 O   0  0  0  0  0  0  0  0  0  0  0  0
    4.2069    6.8450   20.7994 C   0  0  0  0  0  0  0  0  0  0  0  0
    3.0726   10.1043   19.8522 O   0  0  0  0  0  0  0  0  0  0  0  0
    5.5057    7.1196   21.1155 C   0  0  0  0  0  0  0  0  0  0  0  0
    7.0367   11.0229   21.9948 O   0  0  0  0  0  0  0  0  0  0  0  0
  1  8  4  0
  1 12  4  0
  2  9  1  0
  2 11  4  0
  2 25  4  0
  3 12  4  0
  3 14  1  0
  3 23  4  0
  4 13  4  0
  4 21  4  0
  4 24  1  0
  5  8  4  0
  5 23  4  0
  6 18  2  0
  7 15  4  0
  7 16  1  0
  7 27  4  0
  8 18  1  0
 10 18  1  0
 10 20  1  0
 11 15  4  0
 11 26  1  0
 13 22  4  0
 16 19  1  0
 16 20  2  0
 17 19  4  0
 17 21  4  0
 19 22  4  0
 20 28  1  0
 25 27  4  0
M  END
$$$$

 Created by Python create_sdf_string function

 28 30  0  0  0  0  0  0  0  0999 V2000
   11.4592   11.2893   18.7941 C   0  0  0  0  0  0  0  0  0  0  0  0
    3.4202    7.9009   20.3866 C   0  0  0  0  0  0  0  0  0  0  0  0
   13.5280   10.3522   19.3586 C   0  0  0  0  0  0  0  0  0  0  0  0
    9.6923    5.6468   22.7891 C   0  0  0  0  0  0  0  0  0  0  0  0
   11.7756   10.2554   20.8841 N   0  0  0  0  0  0  0  0  0  0  0  0
    8.9876   11.9370   19.8757 O   0  0  0  0  0  0  0  0  0  0  0  0
    6.0167    8.4478   21.1089 C   0  0  0  0  0  0  0  0  0  0  0  0
   11.0002   10.8890   20.0262 C   0  0  0  0  0  0  0  0  0  0  0  0
    2.1721    7.7393   20.0315 O   0  0  0  0  0  0  0  0  0  0  0  0
    9.1107   10.3880   21.3769 N   0  0  0  0  0  0  0  0  0  0  0  0
    3.9102    9.2008   20.3124 C   0  0  0  0  0  0  0  0  0  0  0  0
   12.7292   10.9960   18.4597 C   0  0  0  0  0  0  0  0  0  0  0  0
    9.3798    6.6793   23.6625 C   0  0  0  0  0  0  0  0  0  0  0  0
   14.7425   10.0739   19.0802 O   0  0  0  0  0  0  0  0  0  0  0  0
    5.1894    9.4673   20.7118 C   0  0  0  0  0  0  0  0  0  0  0  0
    7.3773    8.8224   21.4870 C   0  0  0  0  0  0  0  0  0  0  0  0
    8.4391    6.6439   21.0235 C   0  0  0  0  0  0  0  0  0  0  0  0
    9.6494   11.1353   20.4167 C   0  0  0  0  0  0  0  0  0  0  0  0
    8.1431    7.6829   21.9046 C   0  0  0  0  0  0  0  0  0  0  0  0
    7.7796   10.1314   21.5115 N   0  0  0  0  0  0  0  0  0  0  0  0
    9.2768    5.6183   21.4437 C   0  0  0  0  0  0  0  0  0  0  0  0
    8.6315    7.7322   23.1768 C   0  0  0  0  0  0  0  0  0  0  0  0
   13.0537    9.9821   20.5781 C   0  0  0  0  0  0  0  0  0  0  0  0
   10.3850    4.6575   23.2386 O   0  0  0  0  0  0  0  0  0  0  0  0
    4.2069    6.8450   20.7994 C   0  0  0  0  0  0  0  0  0  0  0  0
    3.0726   10.1043   19.8522 O   0  0  0  0  0  0  0  0  0  0  0  0
    5.5057    7.1196   21.1155 C   0  0  0  0  0  0  0  0  0  0  0  0
    7.0367   11.0229   21.9948 O   0  0  0  0  0  0  0  0  0  0  0  0
  1  8  4  0
  1 12  4  0
  2  9  1  0
  2 11  4  0
  2 25  4  0
  3 12  4  0
  3 14  1  0
  3 23  4  0
  4 13  4  0
  4 21  4  0
  4 24  1  0
  5  8  4  0
  5 23  4  0
  6 18  2  0
  7 15  4  0
  7 16  1  0
  7 27  4  0
  8 18  1  0
 10 18  1  0
 10 20  1  0
 11 15  4  0
 11 26  1  0
 13 22  4  0
 16 19  1  0
 16 20  2  0
 17 19  4  0
 17 21  4  0
 19 22  4  0
 20 28  1  0
 25 27  4  0
M  END
$$$$

 Created by Python create_sdf_string function

 28 30  0  0  0  0  0  0  0  0999 V2000
   11.4592   11.2893   18.7941 C   0  0  0  0  0  0  0  0  0  0  0  0
    3.4202    7.9009   20.3866 C   0  0  0  0  0  0  0  0  0  0  0  0
   13.5280   10.3522   19.3586 C   0  0  0  0  0  0  0  0  0  0  0  0
    9.6923    5.6468   22.7891 C   0  0  0  0  0  0  0  0  0  0  0  0
   11.7756   10.2554   20.8841 N   0  0  0  0  0  0  0  0  0  0  0  0
    8.9876   11.9370   19.8757 O   0  0  0  0  0  0  0  0  0  0  0  0
    6.0167    8.4478   21.1089 C   0  0  0  0  0  0  0  0  0  0  0  0
   11.0002   10.8890   20.0262 C   0  0  0  0  0  0  0  0  0  0  0  0
    2.1721    7.7393   20.0315 O   0  0  0  0  0  0  0  0  0  0  0  0
    9.1107   10.3880   21.3769 N   0  0  0  0  0  0  0  0  0  0  0  0
    3.9102    9.2008   20.3124 C   0  0  0  0  0  0  0  0  0  0  0  0
   12.7292   10.9960   18.4597 C   0  0  0  0  0  0  0  0  0  0  0  0
    9.3798    6.6793   23.6625 C   0  0  0  0  0  0  0  0  0  0  0  0
   14.7425   10.0739   19.0802 O   0  0  0  0  0  0  0  0  0  0  0  0
    5.1894    9.4673   20.7118 C   0  0  0  0  0  0  0  0  0  0  0  0
    7.3773    8.8224   21.4870 C   0  0  0  0  0  0  0  0  0  0  0  0
    8.4391    6.6439   21.0235 C   0  0  0  0  0  0  0  0  0  0  0  0
    9.6494   11.1353   20.4167 C   0  0  0  0  0  0  0  0  0  0  0  0
    8.1431    7.6829   21.9046 C   0  0  0  0  0  0  0  0  0  0  0  0
    7.7796   10.1314   21.5115 N   0  0  0  0  0  0  0  0  0  0  0  0
    9.2768    5.6183   21.4437 C   0  0  0  0  0  0  0  0  0  0  0  0
    8.6315    7.7322   23.1768 C   0  0  0  0  0  0  0  0  0  0  0  0
   13.0537    9.9821   20.5781 C   0  0  0  0  0  0  0  0  0  0  0  0
   10.3850    4.6575   23.2386 O   0  0  0  0  0  0  0  0  0  0  0  0
    4.2069    6.8450   20.7994 C   0  0  0  0  0  0  0  0  0  0  0  0
    3.0726   10.1043   19.8522 O   0  0  0  0  0  0  0  0  0  0  0  0
    5.5057    7.1196   21.1155 C   0  0  0  0  0  0  0  0  0  0  0  0
    7.0367   11.0229   21.9948 O   0  0  0  0  0  0  0  0  0  0  0  0
  1  8  4  0
  1 12  4  0
  2  9  1  0
  2 11  4  0
  2 25  4  0
  3 12  4  0
  3 14  1  0
  3 23  4  0
  4 13  4  0
  4 21  4  0
  4 24  1  0
  5  8  4  0
  5 23  4  0
  6 18  2  0
  7 15  4  0
  7 16  1  0
  7 27  4  0
  8 18  1  0
 10 18  1  0
 10 20  1  0
 11 15  4  0
 11 26  1  0
 13 22  4  0
 16 19  1  0
 16 20  2  0
 17 19  4  0
 17 21  4  0
 19 22  4  0
 20 28  1  0
 25 27  4  0
M  END
$$$$

 Created by Python create_sdf_string function

 28 30  0  0  0  0  0  0  0  0999 V2000
   11.4592   11.2893   18.7941 C   0  0  0  0  0  0  0  0  0  0  0  0
    3.4202    7.9009   20.3866 C   0  0  0  0  0  0  0  0  0  0  0  0
   13.5280   10.3522   19.3586 C   0  0  0  0  0  0  0  0  0  0  0  0
    9.6923    5.6468   22.7891 C   0  0  0  0  0  0  0  0  0  0  0  0
   11.7756   10.2554   20.8841 N   0  0  0  0  0  0  0  0  0  0  0  0
    8.9876   11.9370   19.8757 O   0  0  0  0  0  0  0  0  0  0  0  0
    6.0167    8.4478   21.1089 C   0  0  0  0  0  0  0  0  0  0  0  0
   11.0002   10.8890   20.0262 C   0  0  0  0  0  0  0  0  0  0  0  0
    2.1721    7.7393   20.0315 O   0  0  0  0  0  0  0  0  0  0  0  0
    9.1107   10.3880   21.3769 N   0  0  0  0  0  0  0  0  0  0  0  0
    3.9102    9.2008   20.3124 C   0  0  0  0  0  0  0  0  0  0  0  0
   12.7292   10.9960   18.4597 C   0  0  0  0  0  0  0  0  0  0  0  0
    9.3798    6.6793   23.6625 C   0  0  0  0  0  0  0  0  0  0  0  0
   14.7425   10.0739   19.0802 O   0  0  0  0  0  0  0  0  0  0  0  0
    5.1894    9.4673   20.7118 C   0  0  0  0  0  0  0  0  0  0  0  0
    7.3773    8.8224   21.4870 C   0  0  0  0  0  0  0  0  0  0  0  0
    8.4391    6.6439   21.0235 C   0  0  0  0  0  0  0  0  0  0  0  0
    9.6494   11.1353   20.4167 C   0  0  0  0  0  0  0  0  0  0  0  0
    8.1431    7.6829   21.9046 C   0  0  0  0  0  0  0  0  0  0  0  0
    7.7796   10.1314   21.5115 N   0  0  0  0  0  0  0  0  0  0  0  0
    9.2768    5.6183   21.4437 C   0  0  0  0  0  0  0  0  0  0  0  0
    8.6315    7.7322   23.1768 C   0  0  0  0  0  0  0  0  0  0  0  0
   13.0537    9.9821   20.5781 C   0  0  0  0  0  0  0  0  0  0  0  0
   10.3850    4.6575   23.2386 O   0  0  0  0  0  0  0  0  0  0  0  0
    4.2069    6.8450   20.7994 C   0  0  0  0  0  0  0  0  0  0  0  0
    3.0726   10.1043   19.8522 O   0  0  0  0  0  0  0  0  0  0  0  0
    5.5057    7.1196   21.1155 C   0  0  0  0  0  0  0  0  0  0  0  0
    7.0367   11.0229   21.9948 O   0  0  0  0  0  0  0  0  0  0  0  0
  1  8  4  0
  1 12  4  0
  2  9  1  0
  2 11  4  0
  2 25  4  0
  3 12  4  0
  3 14  1  0
  3 23  4  0
  4 13  4  0
  4 21  4  0
  4 24  1  0
  5  8  4  0
  5 23  4  0
  6 18  2  0
  7 15  4  0
  7 16  1  0
  7 27  4  0
  8 18  1  0
 10 18  1  0
 10 20  1  0
 11 15  4  0
 11 26  1  0
 13 22  4  0
 16 19  1  0
 16 20  2  0
 17 19  4  0
 17 21  4  0
 19 22  4  0
 20 28  1  0
 25 27  4  0
M  END
$$$$

 Created by Python create_sdf_string function

 28 30  0  0  0  0  0  0  0  0999 V2000
   11.4592   11.2893   18.7941 C   0  0  0  0  0  0  0  0  0  0  0  0
    3.4202    7.9009   20.3866 C   0  0  0  0  0  0  0  0  0  0  0  0
   13.5280   10.3522   19.3586 C   0  0  0  0  0  0  0  0  0  0  0  0
    9.6923    5.6468   22.7891 C   0  0  0  0  0  0  0  0  0  0  0  0
   11.7756   10.2554   20.8841 N   0  0  0  0  0  0  0  0  0  0  0  0
    8.9876   11.9370   19.8757 O   0  0  0  0  0  0  0  0  0  0  0  0
    6.0167    8.4478   21.1089 C   0  0  0  0  0  0  0  0  0  0  0  0
   11.0002   10.8890   20.0262 C   0  0  0  0  0  0  0  0  0  0  0  0
    2.1721    7.7393   20.0315 O   0  0  0  0  0  0  0  0  0  0  0  0
    9.1107   10.3880   21.3769 N   0  0  0  0  0  0  0  0  0  0  0  0
    3.9102    9.2008   20.3124 C   0  0  0  0  0  0  0  0  0  0  0  0
   12.7292   10.9960   18.4597 C   0  0  0  0  0  0  0  0  0  0  0  0
    9.3798    6.6793   23.6625 C   0  0  0  0  0  0  0  0  0  0  0  0
   14.7425   10.0739   19.0802 O   0  0  0  0  0  0  0  0  0  0  0  0
    5.1894    9.4673   20.7118 C   0  0  0  0  0  0  0  0  0  0  0  0
    7.3773    8.8224   21.4870 C   0  0  0  0  0  0  0  0  0  0  0  0
    8.4391    6.6439   21.0235 C   0  0  0  0  0  0  0  0  0  0  0  0
    9.6494   11.1353   20.4167 C   0  0  0  0  0  0  0  0  0  0  0  0
    8.1431    7.6829   21.9046 C   0  0  0  0  0  0  0  0  0  0  0  0
    7.7796   10.1314   21.5115 N   0  0  0  0  0  0  0  0  0  0  0  0
    9.2768    5.6183   21.4437 C   0  0  0  0  0  0  0  0  0  0  0  0
    8.6315    7.7322   23.1768 C   0  0  0  0  0  0  0  0  0  0  0  0
   13.0537    9.9821   20.5781 C   0  0  0  0  0  0  0  0  0  0  0  0
   10.3850    4.6575   23.2386 O   0  0  0  0  0  0  0  0  0  0  0  0
    4.2069    6.8450   20.7994 C   0  0  0  0  0  0  0  0  0  0  0  0
    3.0726   10.1043   19.8522 O   0  0  0  0  0  0  0  0  0  0  0  0
    5.5057    7.1196   21.1155 C   0  0  0  0  0  0  0  0  0  0  0  0
    7.0367   11.0229   21.9948 O   0  0  0  0  0  0  0  0  0  0  0  0
  1  8  4  0
  1 12  4  0
  2  9  1  0
  2 11  4  0
  2 25  4  0
  3 12  4  0
  3 14  1  0
  3 23  4  0
  4 13  4  0
  4 21  4  0
  4 24  1  0
  5  8  4  0
  5 23  4  0
  6 18  2  0
  7 15  4  0
  7 16  1  0
  7 27  4  0
  8 18  1  0
 10 18  1  0
 10 20  1  0
 11 15  4  0
 11 26  1  0
 13 22  4  0
 16 19  1  0
 16 20  2  0
 17 19  4  0
 17 21  4  0
 19 22  4  0
 20 28  1  0
 25 27  4  0
M  END
$$$$

 Created by Python create_sdf_string function

 28 30  0  0  0  0  0  0  0  0999 V2000
   11.4592   11.2893   18.7941 C   0  0  0  0  0  0  0  0  0  0  0  0
    3.4202    7.9009   20.3866 C   0  0  0  0  0  0  0  0  0  0  0  0
   13.5280   10.3522   19.3586 C   0  0  0  0  0  0  0  0  0  0  0  0
    9.6923    5.6468   22.7891 C   0  0  0  0  0  0  0  0  0  0  0  0
   11.7756   10.2554   20.8841 N   0  0  0  0  0  0  0  0  0  0  0  0
    8.9876   11.9370   19.8757 O   0  0  0  0  0  0  0  0  0  0  0  0
    6.0167    8.4478   21.1089 C   0  0  0  0  0  0  0  0  0  0  0  0
   11.0002   10.8890   20.0262 C   0  0  0  0  0  0  0  0  0  0  0  0
    2.1721    7.7393   20.0315 O   0  0  0  0  0  0  0  0  0  0  0  0
    9.1107   10.3880   21.3769 N   0  0  0  0  0  0  0  0  0  0  0  0
    3.9102    9.2008   20.3124 C   0  0  0  0  0  0  0  0  0  0  0  0
   12.7292   10.9960   18.4597 C   0  0  0  0  0  0  0  0  0  0  0  0
    9.3798    6.6793   23.6625 C   0  0  0  0  0  0  0  0  0  0  0  0
   14.7425   10.0739   19.0802 O   0  0  0  0  0  0  0  0  0  0  0  0
    5.1894    9.4673   20.7118 C   0  0  0  0  0  0  0  0  0  0  0  0
    7.3773    8.8224   21.4870 C   0  0  0  0  0  0  0  0  0  0  0  0
    8.4391    6.6439   21.0235 C   0  0  0  0  0  0  0  0  0  0  0  0
    9.6494   11.1353   20.4167 C   0  0  0  0  0  0  0  0  0  0  0  0
    8.1431    7.6829   21.9046 C   0  0  0  0  0  0  0  0  0  0  0  0
    7.7796   10.1314   21.5115 N   0  0  0  0  0  0  0  0  0  0  0  0
    9.2768    5.6183   21.4437 C   0  0  0  0  0  0  0  0  0  0  0  0
    8.6315    7.7322   23.1768 C   0  0  0  0  0  0  0  0  0  0  0  0
   13.0537    9.9821   20.5781 C   0  0  0  0  0  0  0  0  0  0  0  0
   10.3850    4.6575   23.2386 O   0  0  0  0  0  0  0  0  0  0  0  0
    4.2069    6.8450   20.7994 C   0  0  0  0  0  0  0  0  0  0  0  0
    3.0726   10.1043   19.8522 O   0  0  0  0  0  0  0  0  0  0  0  0
    5.5057    7.1196   21.1155 C   0  0  0  0  0  0  0  0  0  0  0  0
    7.0367   11.0229   21.9948 O   0  0  0  0  0  0  0  0  0  0  0  0
  1  8  4  0
  1 12  4  0
  2  9  1  0
  2 11  4  0
  2 25  4  0
  3 12  4  0
  3 14  1  0
  3 23  4  0
  4 13  4  0
  4 21  4  0
  4 24  1  0
  5  8  4  0
  5 23  4  0
  6 18  2  0
  7 15  4  0
  7 16  1  0
  7 27  4  0
  8 18  1  0
 10 18  1  0
 10 20  1  0
 11 15  4  0
 11 26  1  0
 13 22  4  0
 16 19  1  0
 16 20  2  0
 17 19  4  0
 17 21  4  0
 19 22  4  0
 20 28  1  0
 25 27  4  0
M  END
$$$$

 Created by Python create_sdf_string function

 28 30  0  0  0  0  0  0  0  0999 V2000
   11.4592   11.2893   18.7941 C   0  0  0  0  0  0  0  0  0  0  0  0
    3.4202    7.9009   20.3866 C   0  0  0  0  0  0  0  0  0  0  0  0
   13.5280   10.3522   19.3586 C   0  0  0  0  0  0  0  0  0  0  0  0
    9.6923    5.6468   22.7891 C   0  0  0  0  0  0  0  0  0  0  0  0
   11.7756   10.2554   20.8841 N   0  0  0  0  0  0  0  0  0  0  0  0
    8.9876   11.9370   19.8757 O   0  0  0  0  0  0  0  0  0  0  0  0
    6.0167    8.4478   21.1089 C   0  0  0  0  0  0  0  0  0  0  0  0
   11.0002   10.8890   20.0262 C   0  0  0  0  0  0  0  0  0  0  0  0
    2.1721    7.7393   20.0315 O   0  0  0  0  0  0  0  0  0  0  0  0
    9.1107   10.3880   21.3769 N   0  0  0  0  0  0  0  0  0  0  0  0
    3.9102    9.2008   20.3124 C   0  0  0  0  0  0  0  0  0  0  0  0
   12.7292   10.9960   18.4597 C   0  0  0  0  0  0  0  0  0  0  0  0
    9.3798    6.6793   23.6625 C   0  0  0  0  0  0  0  0  0  0  0  0
   14.7425   10.0739   19.0802 O   0  0  0  0  0  0  0  0  0  0  0  0
    5.1894    9.4673   20.7118 C   0  0  0  0  0  0  0  0  0  0  0  0
    7.3773    8.8224   21.4870 C   0  0  0  0  0  0  0  0  0  0  0  0
    8.4391    6.6439   21.0235 C   0  0  0  0  0  0  0  0  0  0  0  0
    9.6494   11.1353   20.4167 C   0  0  0  0  0  0  0  0  0  0  0  0
    8.1431    7.6829   21.9046 C   0  0  0  0  0  0  0  0  0  0  0  0
    7.7796   10.1314   21.5115 N   0  0  0  0  0  0  0  0  0  0  0  0
    9.2768    5.6183   21.4437 C   0  0  0  0  0  0  0  0  0  0  0  0
    8.6315    7.7322   23.1768 C   0  0  0  0  0  0  0  0  0  0  0  0
   13.0537    9.9821   20.5781 C   0  0  0  0  0  0  0  0  0  0  0  0
   10.3850    4.6575   23.2386 O   0  0  0  0  0  0  0  0  0  0  0  0
    4.2069    6.8450   20.7994 C   0  0  0  0  0  0  0  0  0  0  0  0
    3.0726   10.1043   19.8522 O   0  0  0  0  0  0  0  0  0  0  0  0
    5.5057    7.1196   21.1155 C   0  0  0  0  0  0  0  0  0  0  0  0
    7.0367   11.0229   21.9948 O   0  0  0  0  0  0  0  0  0  0  0  0
  1  8  4  0
  1 12  4  0
  2  9  1  0
  2 11  4  0
  2 25  4  0
  3 12  4  0
  3 14  1  0
  3 23  4  0
  4 13  4  0
  4 21  4  0
  4 24  1  0
  5  8  4  0
  5 23  4  0
  6 18  2  0
  7 15  4  0
  7 16  1  0
  7 27  4  0
  8 18  1  0
 10 18  1  0
 10 20  1  0
 11 15  4  0
 11 26  1  0
 13 22  4  0
 16 19  1  0
 16 20  2  0
 17 19  4  0
 17 21  4  0
 19 22  4  0
 20 28  1  0
 25 27  4  0
M  END
$$$$

 Created by Python create_sdf_string function

 28 30  0  0  0  0  0  0  0  0999 V2000
   11.4592   11.2893   18.7941 C   0  0  0  0  0  0  0  0  0  0  0  0
    3.4202    7.9009   20.3866 C   0  0  0  0  0  0  0  0  0  0  0  0
   13.5280   10.3522   19.3586 C   0  0  0  0  0  0  0  0  0  0  0  0
    9.6923    5.6468   22.7891 C   0  0  0  0  0  0  0  0  0  0  0  0
   11.7756   10.2554   20.8841 N   0  0  0  0  0  0  0  0  0  0  0  0
    8.9876   11.9370   19.8757 O   0  0  0  0  0  0  0  0  0  0  0  0
    6.0167    8.4478   21.1089 C   0  0  0  0  0  0  0  0  0  0  0  0
   11.0002   10.8890   20.0262 C   0  0  0  0  0  0  0  0  0  0  0  0
    2.1721    7.7393   20.0315 O   0  0  0  0  0  0  0  0  0  0  0  0
    9.1107   10.3880   21.3769 N   0  0  0  0  0  0  0  0  0  0  0  0
    3.9102    9.2008   20.3124 C   0  0  0  0  0  0  0  0  0  0  0  0
   12.7292   10.9960   18.4597 C   0  0  0  0  0  0  0  0  0  0  0  0
    9.3798    6.6793   23.6625 C   0  0  0  0  0  0  0  0  0  0  0  0
   14.7425   10.0739   19.0802 O   0  0  0  0  0  0  0  0  0  0  0  0
    5.1894    9.4673   20.7118 C   0  0  0  0  0  0  0  0  0  0  0  0
    7.3773    8.8224   21.4870 C   0  0  0  0  0  0  0  0  0  0  0  0
    8.4391    6.6439   21.0235 C   0  0  0  0  0  0  0  0  0  0  0  0
    9.6494   11.1353   20.4167 C   0  0  0  0  0  0  0  0  0  0  0  0
    8.1431    7.6829   21.9046 C   0  0  0  0  0  0  0  0  0  0  0  0
    7.7796   10.1314   21.5115 N   0  0  0  0  0  0  0  0  0  0  0  0
    9.2768    5.6183   21.4437 C   0  0  0  0  0  0  0  0  0  0  0  0
    8.6315    7.7322   23.1768 C   0  0  0  0  0  0  0  0  0  0  0  0
   13.0537    9.9821   20.5781 C   0  0  0  0  0  0  0  0  0  0  0  0
   10.3850    4.6575   23.2386 O   0  0  0  0  0  0  0  0  0  0  0  0
    4.2069    6.8450   20.7994 C   0  0  0  0  0  0  0  0  0  0  0  0
    3.0726   10.1043   19.8522 O   0  0  0  0  0  0  0  0  0  0  0  0
    5.5057    7.1196   21.1155 C   0  0  0  0  0  0  0  0  0  0  0  0
    7.0367   11.0229   21.9948 O   0  0  0  0  0  0  0  0  0  0  0  0
  1  8  4  0
  1 12  4  0
  2  9  1  0
  2 11  4  0
  2 25  4  0
  3 12  4  0
  3 14  1  0
  3 23  4  0
  4 13  4  0
  4 21  4  0
  4 24  1  0
  5  8  4  0
  5 23  4  0
  6 18  2  0
  7 15  4  0
  7 16  1  0
  7 27  4  0
  8 18  1  0
 10 18  1  0
 10 20  1  0
 11 15  4  0
 11 26  1  0
 13 22  4  0
 16 19  1  0
 16 20  2  0
 17 19  4  0
 17 21  4  0
 19 22  4  0
 20 28  1  0
 25 27  4  0
M  END
$$$$

 Created by Python create_sdf_string function

 28 30  0  0  0  0  0  0  0  0999 V2000
   11.4592   11.2893   18.7941 C   0  0  0  0  0  0  0  0  0  0  0  0
    3.4202    7.9009   20.3866 C   0  0  0  0  0  0  0  0  0  0  0  0
   13.5280   10.3522   19.3586 C   0  0  0  0  0  0  0  0  0  0  0  0
    9.6923    5.6468   22.7891 C   0  0  0  0  0  0  0  0  0  0  0  0
   11.7756   10.2554   20.8841 N   0  0  0  0  0  0  0  0  0  0  0  0
    8.9876   11.9370   19.8757 O   0  0  0  0  0  0  0  0  0  0  0  0
    6.0167    8.4478   21.1089 C   0  0  0  0  0  0  0  0  0  0  0  0
   11.0002   10.8890   20.0262 C   0  0  0  0  0  0  0  0  0  0  0  0
    2.1721    7.7393   20.0315 O   0  0  0  0  0  0  0  0  0  0  0  0
    9.1107   10.3880   21.3769 N   0  0  0  0  0  0  0  0  0  0  0  0
    3.9102    9.2008   20.3124 C   0  0  0  0  0  0  0  0  0  0  0  0
   12.7292   10.9960   18.4597 C   0  0  0  0  0  0  0  0  0  0  0  0
    9.3798    6.6793   23.6625 C   0  0  0  0  0  0  0  0  0  0  0  0
   14.7425   10.0739   19.0802 O   0  0  0  0  0  0  0  0  0  0  0  0
    5.1894    9.4673   20.7118 C   0  0  0  0  0  0  0  0  0  0  0  0
    7.3773    8.8224   21.4870 C   0  0  0  0  0  0  0  0  0  0  0  0
    8.4391    6.6439   21.0235 C   0  0  0  0  0  0  0  0  0  0  0  0
    9.6494   11.1353   20.4167 C   0  0  0  0  0  0  0  0  0  0  0  0
    8.1431    7.6829   21.9046 C   0  0  0  0  0  0  0  0  0  0  0  0
    7.7796   10.1314   21.5115 N   0  0  0  0  0  0  0  0  0  0  0  0
    9.2768    5.6183   21.4437 C   0  0  0  0  0  0  0  0  0  0  0  0
    8.6315    7.7322   23.1768 C   0  0  0  0  0  0  0  0  0  0  0  0
   13.0537    9.9821   20.5781 C   0  0  0  0  0  0  0  0  0  0  0  0
   10.3850    4.6575   23.2386 O   0  0  0  0  0  0  0  0  0  0  0  0
    4.2069    6.8450   20.7994 C   0  0  0  0  0  0  0  0  0  0  0  0
    3.0726   10.1043   19.8522 O   0  0  0  0  0  0  0  0  0  0  0  0
    5.5057    7.1196   21.1155 C   0  0  0  0  0  0  0  0  0  0  0  0
    7.0367   11.0229   21.9948 O   0  0  0  0  0  0  0  0  0  0  0  0
  1  8  4  0
  1 12  4  0
  2  9  1  0
  2 11  4  0
  2 25  4  0
  3 12  4  0
  3 14  1  0
  3 23  4  0
  4 13  4  0
  4 21  4  0
  4 24  1  0
  5  8  4  0
  5 23  4  0
  6 18  2  0
  7 15  4  0
  7 16  1  0
  7 27  4  0
  8 18  1  0
 10 18  1  0
 10 20  1  0
 11 15  4  0
 11 26  1  0
 13 22  4  0
 16 19  1  0
 16 20  2  0
 17 19  4  0
 17 21  4  0
 19 22  4  0
 20 28  1  0
 25 27  4  0
M  END
$$$$

 Created by Python create_sdf_string function

 28 30  0  0  0  0  0  0  0  0999 V2000
   11.4592   11.2893   18.7941 C   0  0  0  0  0  0  0  0  0  0  0  0
    3.4202    7.9009   20.3866 C   0  0  0  0  0  0  0  0  0  0  0  0
   13.5280   10.3522   19.3586 C   0  0  0  0  0  0  0  0  0  0  0  0
    9.6923    5.6468   22.7891 C   0  0  0  0  0  0  0  0  0  0  0  0
   11.7756   10.2554   20.8841 N   0  0  0  0  0  0  0  0  0  0  0  0
    8.9876   11.9370   19.8757 O   0  0  0  0  0  0  0  0  0  0  0  0
    6.0167    8.4478   21.1089 C   0  0  0  0  0  0  0  0  0  0  0  0
   11.0002   10.8890   20.0262 C   0  0  0  0  0  0  0  0  0  0  0  0
    2.1721    7.7393   20.0315 O   0  0  0  0  0  0  0  0  0  0  0  0
    9.1107   10.3880   21.3769 N   0  0  0  0  0  0  0  0  0  0  0  0
    3.9102    9.2008   20.3124 C   0  0  0  0  0  0  0  0  0  0  0  0
   12.7292   10.9960   18.4597 C   0  0  0  0  0  0  0  0  0  0  0  0
    9.3798    6.6793   23.6625 C   0  0  0  0  0  0  0  0  0  0  0  0
   14.7425   10.0739   19.0802 O   0  0  0  0  0  0  0  0  0  0  0  0
    5.1894    9.4673   20.7118 C   0  0  0  0  0  0  0  0  0  0  0  0
    7.3773    8.8224   21.4870 C   0  0  0  0  0  0  0  0  0  0  0  0
    8.4391    6.6439   21.0235 C   0  0  0  0  0  0  0  0  0  0  0  0
    9.6494   11.1353   20.4167 C   0  0  0  0  0  0  0  0  0  0  0  0
    8.1431    7.6829   21.9046 C   0  0  0  0  0  0  0  0  0  0  0  0
    7.7796   10.1314   21.5115 N   0  0  0  0  0  0  0  0  0  0  0  0
    9.2768    5.6183   21.4437 C   0  0  0  0  0  0  0  0  0  0  0  0
    8.6315    7.7322   23.1768 C   0  0  0  0  0  0  0  0  0  0  0  0
   13.0537    9.9821   20.5781 C   0  0  0  0  0  0  0  0  0  0  0  0
   10.3850    4.6575   23.2386 O   0  0  0  0  0  0  0  0  0  0  0  0
    4.2069    6.8450   20.7994 C   0  0  0  0  0  0  0  0  0  0  0  0
    3.0726   10.1043   19.8522 O   0  0  0  0  0  0  0  0  0  0  0  0
    5.5057    7.1196   21.1155 C   0  0  0  0  0  0  0  0  0  0  0  0
    7.0367   11.0229   21.9948 O   0  0  0  0  0  0  0  0  0  0  0  0
  1  8  4  0
  1 12  4  0
  2  9  1  0
  2 11  4  0
  2 25  4  0
  3 12  4  0
  3 14  1  0
  3 23  4  0
  4 13  4  0
  4 21  4  0
  4 24  1  0
  5  8  4  0
  5 23  4  0
  6 18  2  0
  7 15  4  0
  7 16  1  0
  7 27  4  0
  8 18  1  0
 10 18  1  0
 10 20  1  0
 11 15  4  0
 11 26  1  0
 13 22  4  0
 16 19  1  0
 16 20  2  0
 17 19  4  0
 17 21  4  0
 19 22  4  0
 20 28  1  0
 25 27  4  0
M  END
$$$$

 Created by Python create_sdf_string function

 28 30  0  0  0  0  0  0  0  0999 V2000
   11.4592   11.2893   18.7941 C   0  0  0  0  0  0  0  0  0  0  0  0
    3.4202    7.9009   20.3866 C   0  0  0  0  0  0  0  0  0  0  0  0
   13.5280   10.3522   19.3586 C   0  0  0  0  0  0  0  0  0  0  0  0
    9.6923    5.6468   22.7891 C   0  0  0  0  0  0  0  0  0  0  0  0
   11.7756   10.2554   20.8841 N   0  0  0  0  0  0  0  0  0  0  0  0
    8.9876   11.9370   19.8757 O   0  0  0  0  0  0  0  0  0  0  0  0
    6.0167    8.4478   21.1089 C   0  0  0  0  0  0  0  0  0  0  0  0
   11.0002   10.8890   20.0262 C   0  0  0  0  0  0  0  0  0  0  0  0
    2.1721    7.7393   20.0315 O   0  0  0  0  0  0  0  0  0  0  0  0
    9.1107   10.3880   21.3769 N   0  0  0  0  0  0  0  0  0  0  0  0
    3.9102    9.2008   20.3124 C   0  0  0  0  0  0  0  0  0  0  0  0
   12.7292   10.9960   18.4597 C   0  0  0  0  0  0  0  0  0  0  0  0
    9.3798    6.6793   23.6625 C   0  0  0  0  0  0  0  0  0  0  0  0
   14.7425   10.0739   19.0802 O   0  0  0  0  0  0  0  0  0  0  0  0
    5.1894    9.4673   20.7118 C   0  0  0  0  0  0  0  0  0  0  0  0
    7.3773    8.8224   21.4870 C   0  0  0  0  0  0  0  0  0  0  0  0
    8.4391    6.6439   21.0235 C   0  0  0  0  0  0  0  0  0  0  0  0
    9.6494   11.1353   20.4167 C   0  0  0  0  0  0  0  0  0  0  0  0
    8.1431    7.6829   21.9046 C   0  0  0  0  0  0  0  0  0  0  0  0
    7.7796   10.1314   21.5115 N   0  0  0  0  0  0  0  0  0  0  0  0
    9.2768    5.6183   21.4437 C   0  0  0  0  0  0  0  0  0  0  0  0
    8.6315    7.7322   23.1768 C   0  0  0  0  0  0  0  0  0  0  0  0
   13.0537    9.9821   20.5781 C   0  0  0  0  0  0  0  0  0  0  0  0
   10.3850    4.6575   23.2386 O   0  0  0  0  0  0  0  0  0  0  0  0
    4.2069    6.8450   20.7994 C   0  0  0  0  0  0  0  0  0  0  0  0
    3.0726   10.1043   19.8522 O   0  0  0  0  0  0  0  0  0  0  0  0
    5.5057    7.1196   21.1155 C   0  0  0  0  0  0  0  0  0  0  0  0
    7.0367   11.0229   21.9948 O   0  0  0  0  0  0  0  0  0  0  0  0
  1  8  4  0
  1 12  4  0
  2  9  1  0
  2 11  4  0
  2 25  4  0
  3 12  4  0
  3 14  1  0
  3 23  4  0
  4 13  4  0
  4 21  4  0
  4 24  1  0
  5  8  4  0
  5 23  4  0
  6 18  2  0
  7 15  4  0
  7 16  1  0
  7 27  4  0
  8 18  1  0
 10 18  1  0
 10 20  1  0
 11 15  4  0
 11 26  1  0
 13 22  4  0
 16 19  1  0
 16 20  2  0
 17 19  4  0
 17 21  4  0
 19 22  4  0
 20 28  1  0
 25 27  4  0
M  END
$$$$

 Created by Python create_sdf_string function

 28 30  0  0  0  0  0  0  0  0999 V2000
   11.4592   11.2893   18.7941 C   0  0  0  0  0  0  0  0  0  0  0  0
    3.4202    7.9009   20.3866 C   0  0  0  0  0  0  0  0  0  0  0  0
   13.5280   10.3522   19.3586 C   0  0  0  0  0  0  0  0  0  0  0  0
    9.6923    5.6468   22.7891 C   0  0  0  0  0  0  0  0  0  0  0  0
   11.7756   10.2554   20.8841 N   0  0  0  0  0  0  0  0  0  0  0  0
    8.9876   11.9370   19.8757 O   0  0  0  0  0  0  0  0  0  0  0  0
    6.0167    8.4478   21.1089 C   0  0  0  0  0  0  0  0  0  0  0  0
   11.0002   10.8890   20.0262 C   0  0  0  0  0  0  0  0  0  0  0  0
    2.1721    7.7393   20.0315 O   0  0  0  0  0  0  0  0  0  0  0  0
    9.1107   10.3880   21.3769 N   0  0  0  0  0  0  0  0  0  0  0  0
    3.9102    9.2008   20.3124 C   0  0  0  0  0  0  0  0  0  0  0  0
   12.7292   10.9960   18.4597 C   0  0  0  0  0  0  0  0  0  0  0  0
    9.3798    6.6793   23.6625 C   0  0  0  0  0  0  0  0  0  0  0  0
   14.7425   10.0739   19.0802 O   0  0  0  0  0  0  0  0  0  0  0  0
    5.1894    9.4673   20.7118 C   0  0  0  0  0  0  0  0  0  0  0  0
    7.3773    8.8224   21.4870 C   0  0  0  0  0  0  0  0  0  0  0  0
    8.4391    6.6439   21.0235 C   0  0  0  0  0  0  0  0  0  0  0  0
    9.6494   11.1353   20.4167 C   0  0  0  0  0  0  0  0  0  0  0  0
    8.1431    7.6829   21.9046 C   0  0  0  0  0  0  0  0  0  0  0  0
    7.7796   10.1314   21.5115 N   0  0  0  0  0  0  0  0  0  0  0  0
    9.2768    5.6183   21.4437 C   0  0  0  0  0  0  0  0  0  0  0  0
    8.6315    7.7322   23.1768 C   0  0  0  0  0  0  0  0  0  0  0  0
   13.0537    9.9821   20.5781 C   0  0  0  0  0  0  0  0  0  0  0  0
   10.3850    4.6575   23.2386 O   0  0  0  0  0  0  0  0  0  0  0  0
    4.2069    6.8450   20.7994 C   0  0  0  0  0  0  0  0  0  0  0  0
    3.0726   10.1043   19.8522 O   0  0  0  0  0  0  0  0  0  0  0  0
    5.5057    7.1196   21.1155 C   0  0  0  0  0  0  0  0  0  0  0  0
    7.0367   11.0229   21.9948 O   0  0  0  0  0  0  0  0  0  0  0  0
  1  8  4  0
  1 12  4  0
  2  9  1  0
  2 11  4  0
  2 25  4  0
  3 12  4  0
  3 14  1  0
  3 23  4  0
  4 13  4  0
  4 21  4  0
  4 24  1  0
  5  8  4  0
  5 23  4  0
  6 18  2  0
  7 15  4  0
  7 16  1  0
  7 27  4  0
  8 18  1  0
 10 18  1  0
 10 20  1  0
 11 15  4  0
 11 26  1  0
 13 22  4  0
 16 19  1  0
 16 20  2  0
 17 19  4  0
 17 21  4  0
 19 22  4  0
 20 28  1  0
 25 27  4  0
M  END
$$$$

 Created by Python create_sdf_string function

 28 30  0  0  0  0  0  0  0  0999 V2000
   11.4592   11.2893   18.7941 C   0  0  0  0  0  0  0  0  0  0  0  0
    3.4202    7.9009   20.3866 C   0  0  0  0  0  0  0  0  0  0  0  0
   13.5280   10.3522   19.3586 C   0  0  0  0  0  0  0  0  0  0  0  0
    9.6923    5.6468   22.7891 C   0  0  0  0  0  0  0  0  0  0  0  0
   11.7756   10.2554   20.8841 N   0  0  0  0  0  0  0  0  0  0  0  0
    8.9876   11.9370   19.8757 O   0  0  0  0  0  0  0  0  0  0  0  0
    6.0167    8.4478   21.1089 C   0  0  0  0  0  0  0  0  0  0  0  0
   11.0002   10.8890   20.0262 C   0  0  0  0  0  0  0  0  0  0  0  0
    2.1721    7.7393   20.0315 O   0  0  0  0  0  0  0  0  0  0  0  0
    9.1107   10.3880   21.3769 N   0  0  0  0  0  0  0  0  0  0  0  0
    3.9102    9.2008   20.3124 C   0  0  0  0  0  0  0  0  0  0  0  0
   12.7292   10.9960   18.4597 C   0  0  0  0  0  0  0  0  0  0  0  0
    9.3798    6.6793   23.6625 C   0  0  0  0  0  0  0  0  0  0  0  0
   14.7425   10.0739   19.0802 O   0  0  0  0  0  0  0  0  0  0  0  0
    5.1894    9.4673   20.7118 C   0  0  0  0  0  0  0  0  0  0  0  0
    7.3773    8.8224   21.4870 C   0  0  0  0  0  0  0  0  0  0  0  0
    8.4391    6.6439   21.0235 C   0  0  0  0  0  0  0  0  0  0  0  0
    9.6494   11.1353   20.4167 C   0  0  0  0  0  0  0  0  0  0  0  0
    8.1431    7.6829   21.9046 C   0  0  0  0  0  0  0  0  0  0  0  0
    7.7796   10.1314   21.5115 N   0  0  0  0  0  0  0  0  0  0  0  0
    9.2768    5.6183   21.4437 C   0  0  0  0  0  0  0  0  0  0  0  0
    8.6315    7.7322   23.1768 C   0  0  0  0  0  0  0  0  0  0  0  0
   13.0537    9.9821   20.5781 C   0  0  0  0  0  0  0  0  0  0  0  0
   10.3850    4.6575   23.2386 O   0  0  0  0  0  0  0  0  0  0  0  0
    4.2069    6.8450   20.7994 C   0  0  0  0  0  0  0  0  0  0  0  0
    3.0726   10.1043   19.8522 O   0  0  0  0  0  0  0  0  0  0  0  0
    5.5057    7.1196   21.1155 C   0  0  0  0  0  0  0  0  0  0  0  0
    7.0367   11.0229   21.9948 O   0  0  0  0  0  0  0  0  0  0  0  0
  1  8  4  0
  1 12  4  0
  2  9  1  0
  2 11  4  0
  2 25  4  0
  3 12  4  0
  3 14  1  0
  3 23  4  0
  4 13  4  0
  4 21  4  0
  4 24  1  0
  5  8  4  0
  5 23  4  0
  6 18  2  0
  7 15  4  0
  7 16  1  0
  7 27  4  0
  8 18  1  0
 10 18  1  0
 10 20  1  0
 11 15  4  0
 11 26  1  0
 13 22  4  0
 16 19  1  0
 16 20  2  0
 17 19  4  0
 17 21  4  0
 19 22  4  0
 20 28  1  0
 25 27  4  0
M  END
$$$$

 Created by Python create_sdf_string function

 28 30  0  0  0  0  0  0  0  0999 V2000
   11.4592   11.2893   18.7941 C   0  0  0  0  0  0  0  0  0  0  0  0
    3.4202    7.9009   20.3866 C   0  0  0  0  0  0  0  0  0  0  0  0
   13.5280   10.3522   19.3586 C   0  0  0  0  0  0  0  0  0  0  0  0
    9.6923    5.6468   22.7891 C   0  0  0  0  0  0  0  0  0  0  0  0
   11.7756   10.2554   20.8841 N   0  0  0  0  0  0  0  0  0  0  0  0
    8.9876   11.9370   19.8757 O   0  0  0  0  0  0  0  0  0  0  0  0
    6.0167    8.4478   21.1089 C   0  0  0  0  0  0  0  0  0  0  0  0
   11.0002   10.8890   20.0262 C   0  0  0  0  0  0  0  0  0  0  0  0
    2.1721    7.7393   20.0315 O   0  0  0  0  0  0  0  0  0  0  0  0
    9.1107   10.3880   21.3769 N   0  0  0  0  0  0  0  0  0  0  0  0
    3.9102    9.2008   20.3124 C   0  0  0  0  0  0  0  0  0  0  0  0
   12.7292   10.9960   18.4597 C   0  0  0  0  0  0  0  0  0  0  0  0
    9.3798    6.6793   23.6625 C   0  0  0  0  0  0  0  0  0  0  0  0
   14.7425   10.0739   19.0802 O   0  0  0  0  0  0  0  0  0  0  0  0
    5.1894    9.4673   20.7118 C   0  0  0  0  0  0  0  0  0  0  0  0
    7.3773    8.8224   21.4870 C   0  0  0  0  0  0  0  0  0  0  0  0
    8.4391    6.6439   21.0235 C   0  0  0  0  0  0  0  0  0  0  0  0
    9.6494   11.1353   20.4167 C   0  0  0  0  0  0  0  0  0  0  0  0
    8.1431    7.6829   21.9046 C   0  0  0  0  0  0  0  0  0  0  0  0
    7.7796   10.1314   21.5115 N   0  0  0  0  0  0  0  0  0  0  0  0
    9.2768    5.6183   21.4437 C   0  0  0  0  0  0  0  0  0  0  0  0
    8.6315    7.7322   23.1768 C   0  0  0  0  0  0  0  0  0  0  0  0
   13.0537    9.9821   20.5781 C   0  0  0  0  0  0  0  0  0  0  0  0
   10.3850    4.6575   23.2386 O   0  0  0  0  0  0  0  0  0  0  0  0
    4.2069    6.8450   20.7994 C   0  0  0  0  0  0  0  0  0  0  0  0
    3.0726   10.1043   19.8522 O   0  0  0  0  0  0  0  0  0  0  0  0
    5.5057    7.1196   21.1155 C   0  0  0  0  0  0  0  0  0  0  0  0
    7.0367   11.0229   21.9948 O   0  0  0  0  0  0  0  0  0  0  0  0
  1  8  4  0
  1 12  4  0
  2  9  1  0
  2 11  4  0
  2 25  4  0
  3 12  4  0
  3 14  1  0
  3 23  4  0
  4 13  4  0
  4 21  4  0
  4 24  1  0
  5  8  4  0
  5 23  4  0
  6 18  2  0
  7 15  4  0
  7 16  1  0
  7 27  4  0
  8 18  1  0
 10 18  1  0
 10 20  1  0
 11 15  4  0
 11 26  1  0
 13 22  4  0
 16 19  1  0
 16 20  2  0
 17 19  4  0
 17 21  4  0
 19 22  4  0
 20 28  1  0
 25 27  4  0
M  END
$$$$

 Created by Python create_sdf_string function

 28 30  0  0  0  0  0  0  0  0999 V2000
   11.4592   11.2893   18.7941 C   0  0  0  0  0  0  0  0  0  0  0  0
    3.4202    7.9009   20.3866 C   0  0  0  0  0  0  0  0  0  0  0  0
   13.5280   10.3522   19.3586 C   0  0  0  0  0  0  0  0  0  0  0  0
    9.6923    5.6468   22.7891 C   0  0  0  0  0  0  0  0  0  0  0  0
   11.7756   10.2554   20.8841 N   0  0  0  0  0  0  0  0  0  0  0  0
    8.9876   11.9370   19.8757 O   0  0  0  0  0  0  0  0  0  0  0  0
    6.0167    8.4478   21.1089 C   0  0  0  0  0  0  0  0  0  0  0  0
   11.0002   10.8890   20.0262 C   0  0  0  0  0  0  0  0  0  0  0  0
    2.1721    7.7393   20.0315 O   0  0  0  0  0  0  0  0  0  0  0  0
    9.1107   10.3880   21.3769 N   0  0  0  0  0  0  0  0  0  0  0  0
    3.9102    9.2008   20.3124 C   0  0  0  0  0  0  0  0  0  0  0  0
   12.7292   10.9960   18.4597 C   0  0  0  0  0  0  0  0  0  0  0  0
    9.3798    6.6793   23.6625 C   0  0  0  0  0  0  0  0  0  0  0  0
   14.7425   10.0739   19.0802 O   0  0  0  0  0  0  0  0  0  0  0  0
    5.1894    9.4673   20.7118 C   0  0  0  0  0  0  0  0  0  0  0  0
    7.3773    8.8224   21.4870 C   0  0  0  0  0  0  0  0  0  0  0  0
    8.4391    6.6439   21.0235 C   0  0  0  0  0  0  0  0  0  0  0  0
    9.6494   11.1353   20.4167 C   0  0  0  0  0  0  0  0  0  0  0  0
    8.1431    7.6829   21.9046 C   0  0  0  0  0  0  0  0  0  0  0  0
    7.7796   10.1314   21.5115 N   0  0  0  0  0  0  0  0  0  0  0  0
    9.2768    5.6183   21.4437 C   0  0  0  0  0  0  0  0  0  0  0  0
    8.6315    7.7322   23.1768 C   0  0  0  0  0  0  0  0  0  0  0  0
   13.0537    9.9821   20.5781 C   0  0  0  0  0  0  0  0  0  0  0  0
   10.3850    4.6575   23.2386 O   0  0  0  0  0  0  0  0  0  0  0  0
    4.2069    6.8450   20.7994 C   0  0  0  0  0  0  0  0  0  0  0  0
    3.0726   10.1043   19.8522 O   0  0  0  0  0  0  0  0  0  0  0  0
    5.5057    7.1196   21.1155 C   0  0  0  0  0  0  0  0  0  0  0  0
    7.0367   11.0229   21.9948 O   0  0  0  0  0  0  0  0  0  0  0  0
  1  8  4  0
  1 12  4  0
  2  9  1  0
  2 11  4  0
  2 25  4  0
  3 12  4  0
  3 14  1  0
  3 23  4  0
  4 13  4  0
  4 21  4  0
  4 24  1  0
  5  8  4  0
  5 23  4  0
  6 18  2  0
  7 15  4  0
  7 16  1  0
  7 27  4  0
  8 18  1  0
 10 18  1  0
 10 20  1  0
 11 15  4  0
 11 26  1  0
 13 22  4  0
 16 19  1  0
 16 20  2  0
 17 19  4  0
 17 21  4  0
 19 22  4  0
 20 28  1  0
 25 27  4  0
M  END
$$$$

 Created by Python create_sdf_string function

 28 30  0  0  0  0  0  0  0  0999 V2000
   11.4592   11.2893   18.7941 C   0  0  0  0  0  0  0  0  0  0  0  0
    3.4202    7.9009   20.3866 C   0  0  0  0  0  0  0  0  0  0  0  0
   13.5280   10.3522   19.3586 C   0  0  0  0  0  0  0  0  0  0  0  0
    9.6923    5.6468   22.7891 C   0  0  0  0  0  0  0  0  0  0  0  0
   11.7756   10.2554   20.8841 N   0  0  0  0  0  0  0  0  0  0  0  0
    8.9876   11.9370   19.8757 O   0  0  0  0  0  0  0  0  0  0  0  0
    6.0167    8.4478   21.1089 C   0  0  0  0  0  0  0  0  0  0  0  0
   11.0002   10.8890   20.0262 C   0  0  0  0  0  0  0  0  0  0  0  0
    2.1721    7.7393   20.0315 O   0  0  0  0  0  0  0  0  0  0  0  0
    9.1107   10.3880   21.3769 N   0  0  0  0  0  0  0  0  0  0  0  0
    3.9102    9.2008   20.3124 C   0  0  0  0  0  0  0  0  0  0  0  0
   12.7292   10.9960   18.4597 C   0  0  0  0  0  0  0  0  0  0  0  0
    9.3798    6.6793   23.6625 C   0  0  0  0  0  0  0  0  0  0  0  0
   14.7425   10.0739   19.0802 O   0  0  0  0  0  0  0  0  0  0  0  0
    5.1894    9.4673   20.7118 C   0  0  0  0  0  0  0  0  0  0  0  0
    7.3773    8.8224   21.4870 C   0  0  0  0  0  0  0  0  0  0  0  0
    8.4391    6.6439   21.0235 C   0  0  0  0  0  0  0  0  0  0  0  0
    9.6494   11.1353   20.4167 C   0  0  0  0  0  0  0  0  0  0  0  0
    8.1431    7.6829   21.9046 C   0  0  0  0  0  0  0  0  0  0  0  0
    7.7796   10.1314   21.5115 N   0  0  0  0  0  0  0  0  0  0  0  0
    9.2768    5.6183   21.4437 C   0  0  0  0  0  0  0  0  0  0  0  0
    8.6315    7.7322   23.1768 C   0  0  0  0  0  0  0  0  0  0  0  0
   13.0537    9.9821   20.5781 C   0  0  0  0  0  0  0  0  0  0  0  0
   10.3850    4.6575   23.2386 O   0  0  0  0  0  0  0  0  0  0  0  0
    4.2069    6.8450   20.7994 C   0  0  0  0  0  0  0  0  0  0  0  0
    3.0726   10.1043   19.8522 O   0  0  0  0  0  0  0  0  0  0  0  0
    5.5057    7.1196   21.1155 C   0  0  0  0  0  0  0  0  0  0  0  0
    7.0367   11.0229   21.9948 O   0  0  0  0  0  0  0  0  0  0  0  0
  1  8  4  0
  1 12  4  0
  2  9  1  0
  2 11  4  0
  2 25  4  0
  3 12  4  0
  3 14  1  0
  3 23  4  0
  4 13  4  0
  4 21  4  0
  4 24  1  0
  5  8  4  0
  5 23  4  0
  6 18  2  0
  7 15  4  0
  7 16  1  0
  7 27  4  0
  8 18  1  0
 10 18  1  0
 10 20  1  0
 11 15  4  0
 11 26  1  0
 13 22  4  0
 16 19  1  0
 16 20  2  0
 17 19  4  0
 17 21  4  0
 19 22  4  0
 20 28  1  0
 25 27  4  0
M  END
$$$$

 Created by Python create_sdf_string function

 28 30  0  0  0  0  0  0  0  0999 V2000
   11.4592   11.2893   18.7941 C   0  0  0  0  0  0  0  0  0  0  0  0
    3.4202    7.9009   20.3866 C   0  0  0  0  0  0  0  0  0  0  0  0
   13.5280   10.3522   19.3586 C   0  0  0  0  0  0  0  0  0  0  0  0
    9.6923    5.6468   22.7891 C   0  0  0  0  0  0  0  0  0  0  0  0
   11.7756   10.2554   20.8841 N   0  0  0  0  0  0  0  0  0  0  0  0
    8.9876   11.9370   19.8757 O   0  0  0  0  0  0  0  0  0  0  0  0
    6.0167    8.4478   21.1089 C   0  0  0  0  0  0  0  0  0  0  0  0
   11.0002   10.8890   20.0262 C   0  0  0  0  0  0  0  0  0  0  0  0
    2.1721    7.7393   20.0315 O   0  0  0  0  0  0  0  0  0  0  0  0
    9.1107   10.3880   21.3769 N   0  0  0  0  0  0  0  0  0  0  0  0
    3.9102    9.2008   20.3124 C   0  0  0  0  0  0  0  0  0  0  0  0
   12.7292   10.9960   18.4597 C   0  0  0  0  0  0  0  0  0  0  0  0
    9.3798    6.6793   23.6625 C   0  0  0  0  0  0  0  0  0  0  0  0
   14.7425   10.0739   19.0802 O   0  0  0  0  0  0  0  0  0  0  0  0
    5.1894    9.4673   20.7118 C   0  0  0  0  0  0  0  0  0  0  0  0
    7.3773    8.8224   21.4870 C   0  0  0  0  0  0  0  0  0  0  0  0
    8.4391    6.6439   21.0235 C   0  0  0  0  0  0  0  0  0  0  0  0
    9.6494   11.1353   20.4167 C   0  0  0  0  0  0  0  0  0  0  0  0
    8.1431    7.6829   21.9046 C   0  0  0  0  0  0  0  0  0  0  0  0
    7.7796   10.1314   21.5115 N   0  0  0  0  0  0  0  0  0  0  0  0
    9.2768    5.6183   21.4437 C   0  0  0  0  0  0  0  0  0  0  0  0
    8.6315    7.7322   23.1768 C   0  0  0  0  0  0  0  0  0  0  0  0
   13.0537    9.9821   20.5781 C   0  0  0  0  0  0  0  0  0  0  0  0
   10.3850    4.6575   23.2386 O   0  0  0  0  0  0  0  0  0  0  0  0
    4.2069    6.8450   20.7994 C   0  0  0  0  0  0  0  0  0  0  0  0
    3.0726   10.1043   19.8522 O   0  0  0  0  0  0  0  0  0  0  0  0
    5.5057    7.1196   21.1155 C   0  0  0  0  0  0  0  0  0  0  0  0
    7.0367   11.0229   21.9948 O   0  0  0  0  0  0  0  0  0  0  0  0
  1  8  4  0
  1 12  4  0
  2  9  1  0
  2 11  4  0
  2 25  4  0
  3 12  4  0
  3 14  1  0
  3 23  4  0
  4 13  4  0
  4 21  4  0
  4 24  1  0
  5  8  4  0
  5 23  4  0
  6 18  2  0
  7 15  4  0
  7 16  1  0
  7 27  4  0
  8 18  1  0
 10 18  1  0
 10 20  1  0
 11 15  4  0
 11 26  1  0
 13 22  4  0
 16 19  1  0
 16 20  2  0
 17 19  4  0
 17 21  4  0
 19 22  4  0
 20 28  1  0
 25 27  4  0
M  END
$$$$

 Created by Python create_sdf_string function

 28 30  0  0  0  0  0  0  0  0999 V2000
   11.4592   11.2893   18.7941 C   0  0  0  0  0  0  0  0  0  0  0  0
    3.4202    7.9009   20.3866 C   0  0  0  0  0  0  0  0  0  0  0  0
   13.5280   10.3522   19.3586 C   0  0  0  0  0  0  0  0  0  0  0  0
    9.6923    5.6468   22.7891 C   0  0  0  0  0  0  0  0  0  0  0  0
   11.7756   10.2554   20.8841 N   0  0  0  0  0  0  0  0  0  0  0  0
    8.9876   11.9370   19.8757 O   0  0  0  0  0  0  0  0  0  0  0  0
    6.0167    8.4478   21.1089 C   0  0  0  0  0  0  0  0  0  0  0  0
   11.0002   10.8890   20.0262 C   0  0  0  0  0  0  0  0  0  0  0  0
    2.1721    7.7393   20.0315 O   0  0  0  0  0  0  0  0  0  0  0  0
    9.1107   10.3880   21.3769 N   0  0  0  0  0  0  0  0  0  0  0  0
    3.9102    9.2008   20.3124 C   0  0  0  0  0  0  0  0  0  0  0  0
   12.7292   10.9960   18.4597 C   0  0  0  0  0  0  0  0  0  0  0  0
    9.3798    6.6793   23.6625 C   0  0  0  0  0  0  0  0  0  0  0  0
   14.7425   10.0739   19.0802 O   0  0  0  0  0  0  0  0  0  0  0  0
    5.1894    9.4673   20.7118 C   0  0  0  0  0  0  0  0  0  0  0  0
    7.3773    8.8224   21.4870 C   0  0  0  0  0  0  0  0  0  0  0  0
    8.4391    6.6439   21.0235 C   0  0  0  0  0  0  0  0  0  0  0  0
    9.6494   11.1353   20.4167 C   0  0  0  0  0  0  0  0  0  0  0  0
    8.1431    7.6829   21.9046 C   0  0  0  0  0  0  0  0  0  0  0  0
    7.7796   10.1314   21.5115 N   0  0  0  0  0  0  0  0  0  0  0  0
    9.2768    5.6183   21.4437 C   0  0  0  0  0  0  0  0  0  0  0  0
    8.6315    7.7322   23.1768 C   0  0  0  0  0  0  0  0  0  0  0  0
   13.0537    9.9821   20.5781 C   0  0  0  0  0  0  0  0  0  0  0  0
   10.3850    4.6575   23.2386 O   0  0  0  0  0  0  0  0  0  0  0  0
    4.2069    6.8450   20.7994 C   0  0  0  0  0  0  0  0  0  0  0  0
    3.0726   10.1043   19.8522 O   0  0  0  0  0  0  0  0  0  0  0  0
    5.5057    7.1196   21.1155 C   0  0  0  0  0  0  0  0  0  0  0  0
    7.0367   11.0229   21.9948 O   0  0  0  0  0  0  0  0  0  0  0  0
  1  8  4  0
  1 12  4  0
  2  9  1  0
  2 11  4  0
  2 25  4  0
  3 12  4  0
  3 14  1  0
  3 23  4  0
  4 13  4  0
  4 21  4  0
  4 24  1  0
  5  8  4  0
  5 23  4  0
  6 18  2  0
  7 15  4  0
  7 16  1  0
  7 27  4  0
  8 18  1  0
 10 18  1  0
 10 20  1  0
 11 15  4  0
 11 26  1  0
 13 22  4  0
 16 19  1  0
 16 20  2  0
 17 19  4  0
 17 21  4  0
 19 22  4  0
 20 28  1  0
 25 27  4  0
M  END
$$$$

 Created by Python create_sdf_string function

 28 30  0  0  0  0  0  0  0  0999 V2000
   11.4592   11.2893   18.7941 C   0  0  0  0  0  0  0  0  0  0  0  0
    3.4202    7.9009   20.3866 C   0  0  0  0  0  0  0  0  0  0  0  0
   13.5280   10.3522   19.3586 C   0  0  0  0  0  0  0  0  0  0  0  0
    9.6923    5.6468   22.7891 C   0  0  0  0  0  0  0  0  0  0  0  0
   11.7756   10.2554   20.8841 N   0  0  0  0  0  0  0  0  0  0  0  0
    8.9876   11.9370   19.8757 O   0  0  0  0  0  0  0  0  0  0  0  0
    6.0167    8.4478   21.1089 C   0  0  0  0  0  0  0  0  0  0  0  0
   11.0002   10.8890   20.0262 C   0  0  0  0  0  0  0  0  0  0  0  0
    2.1721    7.7393   20.0315 O   0  0  0  0  0  0  0  0  0  0  0  0
    9.1107   10.3880   21.3769 N   0  0  0  0  0  0  0  0  0  0  0  0
    3.9102    9.2008   20.3124 C   0  0  0  0  0  0  0  0  0  0  0  0
   12.7292   10.9960   18.4597 C   0  0  0  0  0  0  0  0  0  0  0  0
    9.3798    6.6793   23.6625 C   0  0  0  0  0  0  0  0  0  0  0  0
   14.7425   10.0739   19.0802 O   0  0  0  0  0  0  0  0  0  0  0  0
    5.1894    9.4673   20.7118 C   0  0  0  0  0  0  0  0  0  0  0  0
    7.3773    8.8224   21.4870 C   0  0  0  0  0  0  0  0  0  0  0  0
    8.4391    6.6439   21.0235 C   0  0  0  0  0  0  0  0  0  0  0  0
    9.6494   11.1353   20.4167 C   0  0  0  0  0  0  0  0  0  0  0  0
    8.1431    7.6829   21.9046 C   0  0  0  0  0  0  0  0  0  0  0  0
    7.7796   10.1314   21.5115 N   0  0  0  0  0  0  0  0  0  0  0  0
    9.2768    5.6183   21.4437 C   0  0  0  0  0  0  0  0  0  0  0  0
    8.6315    7.7322   23.1768 C   0  0  0  0  0  0  0  0  0  0  0  0
   13.0537    9.9821   20.5781 C   0  0  0  0  0  0  0  0  0  0  0  0
   10.3850    4.6575   23.2386 O   0  0  0  0  0  0  0  0  0  0  0  0
    4.2069    6.8450   20.7994 C   0  0  0  0  0  0  0  0  0  0  0  0
    3.0726   10.1043   19.8522 O   0  0  0  0  0  0  0  0  0  0  0  0
    5.5057    7.1196   21.1155 C   0  0  0  0  0  0  0  0  0  0  0  0
    7.0367   11.0229   21.9948 O   0  0  0  0  0  0  0  0  0  0  0  0
  1  8  4  0
  1 12  4  0
  2  9  1  0
  2 11  4  0
  2 25  4  0
  3 12  4  0
  3 14  1  0
  3 23  4  0
  4 13  4  0
  4 21  4  0
  4 24  1  0
  5  8  4  0
  5 23  4  0
  6 18  2  0
  7 15  4  0
  7 16  1  0
  7 27  4  0
  8 18  1  0
 10 18  1  0
 10 20  1  0
 11 15  4  0
 11 26  1  0
 13 22  4  0
 16 19  1  0
 16 20  2  0
 17 19  4  0
 17 21  4  0
 19 22  4  0
 20 28  1  0
 25 27  4  0
M  END
$$$$

 Created by Python create_sdf_string function

 28 30  0  0  0  0  0  0  0  0999 V2000
   11.4592   11.2893   18.7941 C   0  0  0  0  0  0  0  0  0  0  0  0
    3.4202    7.9009   20.3866 C   0  0  0  0  0  0  0  0  0  0  0  0
   13.5280   10.3522   19.3586 C   0  0  0  0  0  0  0  0  0  0  0  0
    9.6923    5.6468   22.7891 C   0  0  0  0  0  0  0  0  0  0  0  0
   11.7756   10.2554   20.8841 N   0  0  0  0  0  0  0  0  0  0  0  0
    8.9876   11.9370   19.8757 O   0  0  0  0  0  0  0  0  0  0  0  0
    6.0167    8.4478   21.1089 C   0  0  0  0  0  0  0  0  0  0  0  0
   11.0002   10.8890   20.0262 C   0  0  0  0  0  0  0  0  0  0  0  0
    2.1721    7.7393   20.0315 O   0  0  0  0  0  0  0  0  0  0  0  0
    9.1107   10.3880   21.3769 N   0  0  0  0  0  0  0  0  0  0  0  0
    3.9102    9.2008   20.3124 C   0  0  0  0  0  0  0  0  0  0  0  0
   12.7292   10.9960   18.4597 C   0  0  0  0  0  0  0  0  0  0  0  0
    9.3798    6.6793   23.6625 C   0  0  0  0  0  0  0  0  0  0  0  0
   14.7425   10.0739   19.0802 O   0  0  0  0  0  0  0  0  0  0  0  0
    5.1894    9.4673   20.7118 C   0  0  0  0  0  0  0  0  0  0  0  0
    7.3773    8.8224   21.4870 C   0  0  0  0  0  0  0  0  0  0  0  0
    8.4391    6.6439   21.0235 C   0  0  0  0  0  0  0  0  0  0  0  0
    9.6494   11.1353   20.4167 C   0  0  0  0  0  0  0  0  0  0  0  0
    8.1431    7.6829   21.9046 C   0  0  0  0  0  0  0  0  0  0  0  0
    7.7796   10.1314   21.5115 N   0  0  0  0  0  0  0  0  0  0  0  0
    9.2768    5.6183   21.4437 C   0  0  0  0  0  0  0  0  0  0  0  0
    8.6315    7.7322   23.1768 C   0  0  0  0  0  0  0  0  0  0  0  0
   13.0537    9.9821   20.5781 C   0  0  0  0  0  0  0  0  0  0  0  0
   10.3850    4.6575   23.2386 O   0  0  0  0  0  0  0  0  0  0  0  0
    4.2069    6.8450   20.7994 C   0  0  0  0  0  0  0  0  0  0  0  0
    3.0726   10.1043   19.8522 O   0  0  0  0  0  0  0  0  0  0  0  0
    5.5057    7.1196   21.1155 C   0  0  0  0  0  0  0  0  0  0  0  0
    7.0367   11.0229   21.9948 O   0  0  0  0  0  0  0  0  0  0  0  0
  1  8  4  0
  1 12  4  0
  2  9  1  0
  2 11  4  0
  2 25  4  0
  3 12  4  0
  3 14  1  0
  3 23  4  0
  4 13  4  0
  4 21  4  0
  4 24  1  0
  5  8  4  0
  5 23  4  0
  6 18  2  0
  7 15  4  0
  7 16  1  0
  7 27  4  0
  8 18  1  0
 10 18  1  0
 10 20  1  0
 11 15  4  0
 11 26  1  0
 13 22  4  0
 16 19  1  0
 16 20  2  0
 17 19  4  0
 17 21  4  0
 19 22  4  0
 20 28  1  0
 25 27  4  0
M  END
$$$$

 Created by Python create_sdf_string function

 28 30  0  0  0  0  0  0  0  0999 V2000
   11.4592   11.2893   18.7941 C   0  0  0  0  0  0  0  0  0  0  0  0
    3.4202    7.9009   20.3866 C   0  0  0  0  0  0  0  0  0  0  0  0
   13.5280   10.3522   19.3586 C   0  0  0  0  0  0  0  0  0  0  0  0
    9.6923    5.6468   22.7891 C   0  0  0  0  0  0  0  0  0  0  0  0
   11.7756   10.2554   20.8841 N   0  0  0  0  0  0  0  0  0  0  0  0
    8.9876   11.9370   19.8757 O   0  0  0  0  0  0  0  0  0  0  0  0
    6.0167    8.4478   21.1089 C   0  0  0  0  0  0  0  0  0  0  0  0
   11.0002   10.8890   20.0262 C   0  0  0  0  0  0  0  0  0  0  0  0
    2.1721    7.7393   20.0315 O   0  0  0  0  0  0  0  0  0  0  0  0
    9.1107   10.3880   21.3769 N   0  0  0  0  0  0  0  0  0  0  0  0
    3.9102    9.2008   20.3124 C   0  0  0  0  0  0  0  0  0  0  0  0
   12.7292   10.9960   18.4597 C   0  0  0  0  0  0  0  0  0  0  0  0
    9.3798    6.6793   23.6625 C   0  0  0  0  0  0  0  0  0  0  0  0
   14.7425   10.0739   19.0802 O   0  0  0  0  0  0  0  0  0  0  0  0
    5.1894    9.4673   20.7118 C   0  0  0  0  0  0  0  0  0  0  0  0
    7.3773    8.8224   21.4870 C   0  0  0  0  0  0  0  0  0  0  0  0
    8.4391    6.6439   21.0235 C   0  0  0  0  0  0  0  0  0  0  0  0
    9.6494   11.1353   20.4167 C   0  0  0  0  0  0  0  0  0  0  0  0
    8.1431    7.6829   21.9046 C   0  0  0  0  0  0  0  0  0  0  0  0
    7.7796   10.1314   21.5115 N   0  0  0  0  0  0  0  0  0  0  0  0
    9.2768    5.6183   21.4437 C   0  0  0  0  0  0  0  0  0  0  0  0
    8.6315    7.7322   23.1768 C   0  0  0  0  0  0  0  0  0  0  0  0
   13.0537    9.9821   20.5781 C   0  0  0  0  0  0  0  0  0  0  0  0
   10.3850    4.6575   23.2386 O   0  0  0  0  0  0  0  0  0  0  0  0
    4.2069    6.8450   20.7994 C   0  0  0  0  0  0  0  0  0  0  0  0
    3.0726   10.1043   19.8522 O   0  0  0  0  0  0  0  0  0  0  0  0
    5.5057    7.1196   21.1155 C   0  0  0  0  0  0  0  0  0  0  0  0
    7.0367   11.0229   21.9948 O   0  0  0  0  0  0  0  0  0  0  0  0
  1  8  4  0
  1 12  4  0
  2  9  1  0
  2 11  4  0
  2 25  4  0
  3 12  4  0
  3 14  1  0
  3 23  4  0
  4 13  4  0
  4 21  4  0
  4 24  1  0
  5  8  4  0
  5 23  4  0
  6 18  2  0
  7 15  4  0
  7 16  1  0
  7 27  4  0
  8 18  1  0
 10 18  1  0
 10 20  1  0
 11 15  4  0
 11 26  1  0
 13 22  4  0
 16 19  1  0
 16 20  2  0
 17 19  4  0
 17 21  4  0
 19 22  4  0
 20 28  1  0
 25 27  4  0
M  END
$$$$

 Created by Python create_sdf_string function

 28 30  0  0  0  0  0  0  0  0999 V2000
   11.4592   11.2893   18.7941 C   0  0  0  0  0  0  0  0  0  0  0  0
    3.4202    7.9009   20.3866 C   0  0  0  0  0  0  0  0  0  0  0  0
   13.5280   10.3522   19.3586 C   0  0  0  0  0  0  0  0  0  0  0  0
    9.6923    5.6468   22.7891 C   0  0  0  0  0  0  0  0  0  0  0  0
   11.7756   10.2554   20.8841 N   0  0  0  0  0  0  0  0  0  0  0  0
    8.9876   11.9370   19.8757 O   0  0  0  0  0  0  0  0  0  0  0  0
    6.0167    8.4478   21.1089 C   0  0  0  0  0  0  0  0  0  0  0  0
   11.0002   10.8890   20.0262 C   0  0  0  0  0  0  0  0  0  0  0  0
    2.1721    7.7393   20.0315 O   0  0  0  0  0  0  0  0  0  0  0  0
    9.1107   10.3880   21.3769 N   0  0  0  0  0  0  0  0  0  0  0  0
    3.9102    9.2008   20.3124 C   0  0  0  0  0  0  0  0  0  0  0  0
   12.7292   10.9960   18.4597 C   0  0  0  0  0  0  0  0  0  0  0  0
    9.3798    6.6793   23.6625 C   0  0  0  0  0  0  0  0  0  0  0  0
   14.7425   10.0739   19.0802 O   0  0  0  0  0  0  0  0  0  0  0  0
    5.1894    9.4673   20.7118 C   0  0  0  0  0  0  0  0  0  0  0  0
    7.3773    8.8224   21.4870 C   0  0  0  0  0  0  0  0  0  0  0  0
    8.4391    6.6439   21.0235 C   0  0  0  0  0  0  0  0  0  0  0  0
    9.6494   11.1353   20.4167 C   0  0  0  0  0  0  0  0  0  0  0  0
    8.1431    7.6829   21.9046 C   0  0  0  0  0  0  0  0  0  0  0  0
    7.7796   10.1314   21.5115 N   0  0  0  0  0  0  0  0  0  0  0  0
    9.2768    5.6183   21.4437 C   0  0  0  0  0  0  0  0  0  0  0  0
    8.6315    7.7322   23.1768 C   0  0  0  0  0  0  0  0  0  0  0  0
   13.0537    9.9821   20.5781 C   0  0  0  0  0  0  0  0  0  0  0  0
   10.3850    4.6575   23.2386 O   0  0  0  0  0  0  0  0  0  0  0  0
    4.2069    6.8450   20.7994 C   0  0  0  0  0  0  0  0  0  0  0  0
    3.0726   10.1043   19.8522 O   0  0  0  0  0  0  0  0  0  0  0  0
    5.5057    7.1196   21.1155 C   0  0  0  0  0  0  0  0  0  0  0  0
    7.0367   11.0229   21.9948 O   0  0  0  0  0  0  0  0  0  0  0  0
  1  8  4  0
  1 12  4  0
  2  9  1  0
  2 11  4  0
  2 25  4  0
  3 12  4  0
  3 14  1  0
  3 23  4  0
  4 13  4  0
  4 21  4  0
  4 24  1  0
  5  8  4  0
  5 23  4  0
  6 18  2  0
  7 15  4  0
  7 16  1  0
  7 27  4  0
  8 18  1  0
 10 18  1  0
 10 20  1  0
 11 15  4  0
 11 26  1  0
 13 22  4  0
 16 19  1  0
 16 20  2  0
 17 19  4  0
 17 21  4  0
 19 22  4  0
 20 28  1  0
 25 27  4  0
M  END
$$$$

 Created by Python create_sdf_string function

 28 30  0  0  0  0  0  0  0  0999 V2000
   11.4592   11.2893   18.7941 C   0  0  0  0  0  0  0  0  0  0  0  0
    3.4202    7.9009   20.3866 C   0  0  0  0  0  0  0  0  0  0  0  0
   13.5280   10.3522   19.3586 C   0  0  0  0  0  0  0  0  0  0  0  0
    9.6923    5.6468   22.7891 C   0  0  0  0  0  0  0  0  0  0  0  0
   11.7756   10.2554   20.8841 N   0  0  0  0  0  0  0  0  0  0  0  0
    8.9876   11.9370   19.8757 O   0  0  0  0  0  0  0  0  0  0  0  0
    6.0167    8.4478   21.1089 C   0  0  0  0  0  0  0  0  0  0  0  0
   11.0002   10.8890   20.0262 C   0  0  0  0  0  0  0  0  0  0  0  0
    2.1721    7.7393   20.0315 O   0  0  0  0  0  0  0  0  0  0  0  0
    9.1107   10.3880   21.3769 N   0  0  0  0  0  0  0  0  0  0  0  0
    3.9102    9.2008   20.3124 C   0  0  0  0  0  0  0  0  0  0  0  0
   12.7292   10.9960   18.4597 C   0  0  0  0  0  0  0  0  0  0  0  0
    9.3798    6.6793   23.6625 C   0  0  0  0  0  0  0  0  0  0  0  0
   14.7425   10.0739   19.0802 O   0  0  0  0  0  0  0  0  0  0  0  0
    5.1894    9.4673   20.7118 C   0  0  0  0  0  0  0  0  0  0  0  0
    7.3773    8.8224   21.4870 C   0  0  0  0  0  0  0  0  0  0  0  0
    8.4391    6.6439   21.0235 C   0  0  0  0  0  0  0  0  0  0  0  0
    9.6494   11.1353   20.4167 C   0  0  0  0  0  0  0  0  0  0  0  0
    8.1431    7.6829   21.9046 C   0  0  0  0  0  0  0  0  0  0  0  0
    7.7796   10.1314   21.5115 N   0  0  0  0  0  0  0  0  0  0  0  0
    9.2768    5.6183   21.4437 C   0  0  0  0  0  0  0  0  0  0  0  0
    8.6315    7.7322   23.1768 C   0  0  0  0  0  0  0  0  0  0  0  0
   13.0537    9.9821   20.5781 C   0  0  0  0  0  0  0  0  0  0  0  0
   10.3850    4.6575   23.2386 O   0  0  0  0  0  0  0  0  0  0  0  0
    4.2069    6.8450   20.7994 C   0  0  0  0  0  0  0  0  0  0  0  0
    3.0726   10.1043   19.8522 O   0  0  0  0  0  0  0  0  0  0  0  0
    5.5057    7.1196   21.1155 C   0  0  0  0  0  0  0  0  0  0  0  0
    7.0367   11.0229   21.9948 O   0  0  0  0  0  0  0  0  0  0  0  0
  1  8  4  0
  1 12  4  0
  2  9  1  0
  2 11  4  0
  2 25  4  0
  3 12  4  0
  3 14  1  0
  3 23  4  0
  4 13  4  0
  4 21  4  0
  4 24  1  0
  5  8  4  0
  5 23  4  0
  6 18  2  0
  7 15  4  0
  7 16  1  0
  7 27  4  0
  8 18  1  0
 10 18  1  0
 10 20  1  0
 11 15  4  0
 11 26  1  0
 13 22  4  0
 16 19  1  0
 16 20  2  0
 17 19  4  0
 17 21  4  0
 19 22  4  0
 20 28  1  0
 25 27  4  0
M  END
$$$$

 Created by Python create_sdf_string function

 28 30  0  0  0  0  0  0  0  0999 V2000
   11.4592   11.2893   18.7941 C   0  0  0  0  0  0  0  0  0  0  0  0
    3.4202    7.9009   20.3866 C   0  0  0  0  0  0  0  0  0  0  0  0
   13.5280   10.3522   19.3586 C   0  0  0  0  0  0  0  0  0  0  0  0
    9.6923    5.6468   22.7891 C   0  0  0  0  0  0  0  0  0  0  0  0
   11.7756   10.2554   20.8841 N   0  0  0  0  0  0  0  0  0  0  0  0
    8.9876   11.9370   19.8757 O   0  0  0  0  0  0  0  0  0  0  0  0
    6.0167    8.4478   21.1089 C   0  0  0  0  0  0  0  0  0  0  0  0
   11.0002   10.8890   20.0262 C   0  0  0  0  0  0  0  0  0  0  0  0
    2.1721    7.7393   20.0315 O   0  0  0  0  0  0  0  0  0  0  0  0
    9.1107   10.3880   21.3769 N   0  0  0  0  0  0  0  0  0  0  0  0
    3.9102    9.2008   20.3124 C   0  0  0  0  0  0  0  0  0  0  0  0
   12.7292   10.9960   18.4597 C   0  0  0  0  0  0  0  0  0  0  0  0
    9.3798    6.6793   23.6625 C   0  0  0  0  0  0  0  0  0  0  0  0
   14.7425   10.0739   19.0802 O   0  0  0  0  0  0  0  0  0  0  0  0
    5.1894    9.4673   20.7118 C   0  0  0  0  0  0  0  0  0  0  0  0
    7.3773    8.8224   21.4870 C   0  0  0  0  0  0  0  0  0  0  0  0
    8.4391    6.6439   21.0235 C   0  0  0  0  0  0  0  0  0  0  0  0
    9.6494   11.1353   20.4167 C   0  0  0  0  0  0  0  0  0  0  0  0
    8.1431    7.6829   21.9046 C   0  0  0  0  0  0  0  0  0  0  0  0
    7.7796   10.1314   21.5115 N   0  0  0  0  0  0  0  0  0  0  0  0
    9.2768    5.6183   21.4437 C   0  0  0  0  0  0  0  0  0  0  0  0
    8.6315    7.7322   23.1768 C   0  0  0  0  0  0  0  0  0  0  0  0
   13.0537    9.9821   20.5781 C   0  0  0  0  0  0  0  0  0  0  0  0
   10.3850    4.6575   23.2386 O   0  0  0  0  0  0  0  0  0  0  0  0
    4.2069    6.8450   20.7994 C   0  0  0  0  0  0  0  0  0  0  0  0
    3.0726   10.1043   19.8522 O   0  0  0  0  0  0  0  0  0  0  0  0
    5.5057    7.1196   21.1155 C   0  0  0  0  0  0  0  0  0  0  0  0
    7.0367   11.0229   21.9948 O   0  0  0  0  0  0  0  0  0  0  0  0
  1  8  4  0
  1 12  4  0
  2  9  1  0
  2 11  4  0
  2 25  4  0
  3 12  4  0
  3 14  1  0
  3 23  4  0
  4 13  4  0
  4 21  4  0
  4 24  1  0
  5  8  4  0
  5 23  4  0
  6 18  2  0
  7 15  4  0
  7 16  1  0
  7 27  4  0
  8 18  1  0
 10 18  1  0
 10 20  1  0
 11 15  4  0
 11 26  1  0
 13 22  4  0
 16 19  1  0
 16 20  2  0
 17 19  4  0
 17 21  4  0
 19 22  4  0
 20 28  1  0
 25 27  4  0
M  END
$$$$

 Created by Python create_sdf_string function

 28 30  0  0  0  0  0  0  0  0999 V2000
   11.4592   11.2893   18.7941 C   0  0  0  0  0  0  0  0  0  0  0  0
    3.4202    7.9009   20.3866 C   0  0  0  0  0  0  0  0  0  0  0  0
   13.5280   10.3522   19.3586 C   0  0  0  0  0  0  0  0  0  0  0  0
    9.6923    5.6468   22.7891 C   0  0  0  0  0  0  0  0  0  0  0  0
   11.7756   10.2554   20.8841 N   0  0  0  0  0  0  0  0  0  0  0  0
    8.9876   11.9370   19.8757 O   0  0  0  0  0  0  0  0  0  0  0  0
    6.0167    8.4478   21.1089 C   0  0  0  0  0  0  0  0  0  0  0  0
   11.0002   10.8890   20.0262 C   0  0  0  0  0  0  0  0  0  0  0  0
    2.1721    7.7393   20.0315 O   0  0  0  0  0  0  0  0  0  0  0  0
    9.1107   10.3880   21.3769 N   0  0  0  0  0  0  0  0  0  0  0  0
    3.9102    9.2008   20.3124 C   0  0  0  0  0  0  0  0  0  0  0  0
   12.7292   10.9960   18.4597 C   0  0  0  0  0  0  0  0  0  0  0  0
    9.3798    6.6793   23.6625 C   0  0  0  0  0  0  0  0  0  0  0  0
   14.7425   10.0739   19.0802 O   0  0  0  0  0  0  0  0  0  0  0  0
    5.1894    9.4673   20.7118 C   0  0  0  0  0  0  0  0  0  0  0  0
    7.3773    8.8224   21.4870 C   0  0  0  0  0  0  0  0  0  0  0  0
    8.4391    6.6439   21.0235 C   0  0  0  0  0  0  0  0  0  0  0  0
    9.6494   11.1353   20.4167 C   0  0  0  0  0  0  0  0  0  0  0  0
    8.1431    7.6829   21.9046 C   0  0  0  0  0  0  0  0  0  0  0  0
    7.7796   10.1314   21.5115 N   0  0  0  0  0  0  0  0  0  0  0  0
    9.2768    5.6183   21.4437 C   0  0  0  0  0  0  0  0  0  0  0  0
    8.6315    7.7322   23.1768 C   0  0  0  0  0  0  0  0  0  0  0  0
   13.0537    9.9821   20.5781 C   0  0  0  0  0  0  0  0  0  0  0  0
   10.3850    4.6575   23.2386 O   0  0  0  0  0  0  0  0  0  0  0  0
    4.2069    6.8450   20.7994 C   0  0  0  0  0  0  0  0  0  0  0  0
    3.0726   10.1043   19.8522 O   0  0  0  0  0  0  0  0  0  0  0  0
    5.5057    7.1196   21.1155 C   0  0  0  0  0  0  0  0  0  0  0  0
    7.0367   11.0229   21.9948 O   0  0  0  0  0  0  0  0  0  0  0  0
  1  8  4  0
  1 12  4  0
  2  9  1  0
  2 11  4  0
  2 25  4  0
  3 12  4  0
  3 14  1  0
  3 23  4  0
  4 13  4  0
  4 21  4  0
  4 24  1  0
  5  8  4  0
  5 23  4  0
  6 18  2  0
  7 15  4  0
  7 16  1  0
  7 27  4  0
  8 18  1  0
 10 18  1  0
 10 20  1  0
 11 15  4  0
 11 26  1  0
 13 22  4  0
 16 19  1  0
 16 20  2  0
 17 19  4  0
 17 21  4  0
 19 22  4  0
 20 28  1  0
 25 27  4  0
M  END
$$$$

 Created by Python create_sdf_string function

 28 30  0  0  0  0  0  0  0  0999 V2000
   11.4592   11.2893   18.7941 C   0  0  0  0  0  0  0  0  0  0  0  0
    3.4202    7.9009   20.3866 C   0  0  0  0  0  0  0  0  0  0  0  0
   13.5280   10.3522   19.3586 C   0  0  0  0  0  0  0  0  0  0  0  0
    9.6923    5.6468   22.7891 C   0  0  0  0  0  0  0  0  0  0  0  0
   11.7756   10.2554   20.8841 N   0  0  0  0  0  0  0  0  0  0  0  0
    8.9876   11.9370   19.8757 O   0  0  0  0  0  0  0  0  0  0  0  0
    6.0167    8.4478   21.1089 C   0  0  0  0  0  0  0  0  0  0  0  0
   11.0002   10.8890   20.0262 C   0  0  0  0  0  0  0  0  0  0  0  0
    2.1721    7.7393   20.0315 O   0  0  0  0  0  0  0  0  0  0  0  0
    9.1107   10.3880   21.3769 N   0  0  0  0  0  0  0  0  0  0  0  0
    3.9102    9.2008   20.3124 C   0  0  0  0  0  0  0  0  0  0  0  0
   12.7292   10.9960   18.4597 C   0  0  0  0  0  0  0  0  0  0  0  0
    9.3798    6.6793   23.6625 C   0  0  0  0  0  0  0  0  0  0  0  0
   14.7425   10.0739   19.0802 O   0  0  0  0  0  0  0  0  0  0  0  0
    5.1894    9.4673   20.7118 C   0  0  0  0  0  0  0  0  0  0  0  0
    7.3773    8.8224   21.4870 C   0  0  0  0  0  0  0  0  0  0  0  0
    8.4391    6.6439   21.0235 C   0  0  0  0  0  0  0  0  0  0  0  0
    9.6494   11.1353   20.4167 C   0  0  0  0  0  0  0  0  0  0  0  0
    8.1431    7.6829   21.9046 C   0  0  0  0  0  0  0  0  0  0  0  0
    7.7796   10.1314   21.5115 N   0  0  0  0  0  0  0  0  0  0  0  0
    9.2768    5.6183   21.4437 C   0  0  0  0  0  0  0  0  0  0  0  0
    8.6315    7.7322   23.1768 C   0  0  0  0  0  0  0  0  0  0  0  0
   13.0537    9.9821   20.5781 C   0  0  0  0  0  0  0  0  0  0  0  0
   10.3850    4.6575   23.2386 O   0  0  0  0  0  0  0  0  0  0  0  0
    4.2069    6.8450   20.7994 C   0  0  0  0  0  0  0  0  0  0  0  0
    3.0726   10.1043   19.8522 O   0  0  0  0  0  0  0  0  0  0  0  0
    5.5057    7.1196   21.1155 C   0  0  0  0  0  0  0  0  0  0  0  0
    7.0367   11.0229   21.9948 O   0  0  0  0  0  0  0  0  0  0  0  0
  1  8  4  0
  1 12  4  0
  2  9  1  0
  2 11  4  0
  2 25  4  0
  3 12  4  0
  3 14  1  0
  3 23  4  0
  4 13  4  0
  4 21  4  0
  4 24  1  0
  5  8  4  0
  5 23  4  0
  6 18  2  0
  7 15  4  0
  7 16  1  0
  7 27  4  0
  8 18  1  0
 10 18  1  0
 10 20  1  0
 11 15  4  0
 11 26  1  0
 13 22  4  0
 16 19  1  0
 16 20  2  0
 17 19  4  0
 17 21  4  0
 19 22  4  0
 20 28  1  0
 25 27  4  0
M  END
$$$$

 Created by Python create_sdf_string function

 28 30  0  0  0  0  0  0  0  0999 V2000
   11.4592   11.2893   18.7941 C   0  0  0  0  0  0  0  0  0  0  0  0
    3.4202    7.9009   20.3866 C   0  0  0  0  0  0  0  0  0  0  0  0
   13.5280   10.3522   19.3586 C   0  0  0  0  0  0  0  0  0  0  0  0
    9.6923    5.6468   22.7891 C   0  0  0  0  0  0  0  0  0  0  0  0
   11.7756   10.2554   20.8841 N   0  0  0  0  0  0  0  0  0  0  0  0
    8.9876   11.9370   19.8757 O   0  0  0  0  0  0  0  0  0  0  0  0
    6.0167    8.4478   21.1089 C   0  0  0  0  0  0  0  0  0  0  0  0
   11.0002   10.8890   20.0262 C   0  0  0  0  0  0  0  0  0  0  0  0
    2.1721    7.7393   20.0315 O   0  0  0  0  0  0  0  0  0  0  0  0
    9.1107   10.3880   21.3769 N   0  0  0  0  0  0  0  0  0  0  0  0
    3.9102    9.2008   20.3124 C   0  0  0  0  0  0  0  0  0  0  0  0
   12.7292   10.9960   18.4597 C   0  0  0  0  0  0  0  0  0  0  0  0
    9.3798    6.6793   23.6625 C   0  0  0  0  0  0  0  0  0  0  0  0
   14.7425   10.0739   19.0802 O   0  0  0  0  0  0  0  0  0  0  0  0
    5.1894    9.4673   20.7118 C   0  0  0  0  0  0  0  0  0  0  0  0
    7.3773    8.8224   21.4870 C   0  0  0  0  0  0  0  0  0  0  0  0
    8.4391    6.6439   21.0235 C   0  0  0  0  0  0  0  0  0  0  0  0
    9.6494   11.1353   20.4167 C   0  0  0  0  0  0  0  0  0  0  0  0
    8.1431    7.6829   21.9046 C   0  0  0  0  0  0  0  0  0  0  0  0
    7.7796   10.1314   21.5115 N   0  0  0  0  0  0  0  0  0  0  0  0
    9.2768    5.6183   21.4437 C   0  0  0  0  0  0  0  0  0  0  0  0
    8.6315    7.7322   23.1768 C   0  0  0  0  0  0  0  0  0  0  0  0
   13.0537    9.9821   20.5781 C   0  0  0  0  0  0  0  0  0  0  0  0
   10.3850    4.6575   23.2386 O   0  0  0  0  0  0  0  0  0  0  0  0
    4.2069    6.8450   20.7994 C   0  0  0  0  0  0  0  0  0  0  0  0
    3.0726   10.1043   19.8522 O   0  0  0  0  0  0  0  0  0  0  0  0
    5.5057    7.1196   21.1155 C   0  0  0  0  0  0  0  0  0  0  0  0
    7.0367   11.0229   21.9948 O   0  0  0  0  0  0  0  0  0  0  0  0
  1  8  4  0
  1 12  4  0
  2  9  1  0
  2 11  4  0
  2 25  4  0
  3 12  4  0
  3 14  1  0
  3 23  4  0
  4 13  4  0
  4 21  4  0
  4 24  1  0
  5  8  4  0
  5 23  4  0
  6 18  2  0
  7 15  4  0
  7 16  1  0
  7 27  4  0
  8 18  1  0
 10 18  1  0
 10 20  1  0
 11 15  4  0
 11 26  1  0
 13 22  4  0
 16 19  1  0
 16 20  2  0
 17 19  4  0
 17 21  4  0
 19 22  4  0
 20 28  1  0
 25 27  4  0
M  END
$$$$

 Created by Python create_sdf_string function

 28 30  0  0  0  0  0  0  0  0999 V2000
   11.4592   11.2893   18.7941 C   0  0  0  0  0  0  0  0  0  0  0  0
    3.4202    7.9009   20.3866 C   0  0  0  0  0  0  0  0  0  0  0  0
   13.5280   10.3522   19.3586 C   0  0  0  0  0  0  0  0  0  0  0  0
    9.6923    5.6468   22.7891 C   0  0  0  0  0  0  0  0  0  0  0  0
   11.7756   10.2554   20.8841 N   0  0  0  0  0  0  0  0  0  0  0  0
    8.9876   11.9370   19.8757 O   0  0  0  0  0  0  0  0  0  0  0  0
    6.0167    8.4478   21.1089 C   0  0  0  0  0  0  0  0  0  0  0  0
   11.0002   10.8890   20.0262 C   0  0  0  0  0  0  0  0  0  0  0  0
    2.1721    7.7393   20.0315 O   0  0  0  0  0  0  0  0  0  0  0  0
    9.1107   10.3880   21.3769 N   0  0  0  0  0  0  0  0  0  0  0  0
    3.9102    9.2008   20.3124 C   0  0  0  0  0  0  0  0  0  0  0  0
   12.7292   10.9960   18.4597 C   0  0  0  0  0  0  0  0  0  0  0  0
    9.3798    6.6793   23.6625 C   0  0  0  0  0  0  0  0  0  0  0  0
   14.7425   10.0739   19.0802 O   0  0  0  0  0  0  0  0  0  0  0  0
    5.1894    9.4673   20.7118 C   0  0  0  0  0  0  0  0  0  0  0  0
    7.3773    8.8224   21.4870 C   0  0  0  0  0  0  0  0  0  0  0  0
    8.4391    6.6439   21.0235 C   0  0  0  0  0  0  0  0  0  0  0  0
    9.6494   11.1353   20.4167 C   0  0  0  0  0  0  0  0  0  0  0  0
    8.1431    7.6829   21.9046 C   0  0  0  0  0  0  0  0  0  0  0  0
    7.7796   10.1314   21.5115 N   0  0  0  0  0  0  0  0  0  0  0  0
    9.2768    5.6183   21.4437 C   0  0  0  0  0  0  0  0  0  0  0  0
    8.6315    7.7322   23.1768 C   0  0  0  0  0  0  0  0  0  0  0  0
   13.0537    9.9821   20.5781 C   0  0  0  0  0  0  0  0  0  0  0  0
   10.3850    4.6575   23.2386 O   0  0  0  0  0  0  0  0  0  0  0  0
    4.2069    6.8450   20.7994 C   0  0  0  0  0  0  0  0  0  0  0  0
    3.0726   10.1043   19.8522 O   0  0  0  0  0  0  0  0  0  0  0  0
    5.5057    7.1196   21.1155 C   0  0  0  0  0  0  0  0  0  0  0  0
    7.0367   11.0229   21.9948 O   0  0  0  0  0  0  0  0  0  0  0  0
  1  8  4  0
  1 12  4  0
  2  9  1  0
  2 11  4  0
  2 25  4  0
  3 12  4  0
  3 14  1  0
  3 23  4  0
  4 13  4  0
  4 21  4  0
  4 24  1  0
  5  8  4  0
  5 23  4  0
  6 18  2  0
  7 15  4  0
  7 16  1  0
  7 27  4  0
  8 18  1  0
 10 18  1  0
 10 20  1  0
 11 15  4  0
 11 26  1  0
 13 22  4  0
 16 19  1  0
 16 20  2  0
 17 19  4  0
 17 21  4  0
 19 22  4  0
 20 28  1  0
 25 27  4  0
M  END
$$$$

 Created by Python create_sdf_string function

 28 30  0  0  0  0  0  0  0  0999 V2000
   11.4592   11.2893   18.7941 C   0  0  0  0  0  0  0  0  0  0  0  0
    3.4202    7.9009   20.3866 C   0  0  0  0  0  0  0  0  0  0  0  0
   13.5280   10.3522   19.3586 C   0  0  0  0  0  0  0  0  0  0  0  0
    9.6923    5.6468   22.7891 C   0  0  0  0  0  0  0  0  0  0  0  0
   11.7756   10.2554   20.8841 N   0  0  0  0  0  0  0  0  0  0  0  0
    8.9876   11.9370   19.8757 O   0  0  0  0  0  0  0  0  0  0  0  0
    6.0167    8.4478   21.1089 C   0  0  0  0  0  0  0  0  0  0  0  0
   11.0002   10.8890   20.0262 C   0  0  0  0  0  0  0  0  0  0  0  0
    2.1721    7.7393   20.0315 O   0  0  0  0  0  0  0  0  0  0  0  0
    9.1107   10.3880   21.3769 N   0  0  0  0  0  0  0  0  0  0  0  0
    3.9102    9.2008   20.3124 C   0  0  0  0  0  0  0  0  0  0  0  0
   12.7292   10.9960   18.4597 C   0  0  0  0  0  0  0  0  0  0  0  0
    9.3798    6.6793   23.6625 C   0  0  0  0  0  0  0  0  0  0  0  0
   14.7425   10.0739   19.0802 O   0  0  0  0  0  0  0  0  0  0  0  0
    5.1894    9.4673   20.7118 C   0  0  0  0  0  0  0  0  0  0  0  0
    7.3773    8.8224   21.4870 C   0  0  0  0  0  0  0  0  0  0  0  0
    8.4391    6.6439   21.0235 C   0  0  0  0  0  0  0  0  0  0  0  0
    9.6494   11.1353   20.4167 C   0  0  0  0  0  0  0  0  0  0  0  0
    8.1431    7.6829   21.9046 C   0  0  0  0  0  0  0  0  0  0  0  0
    7.7796   10.1314   21.5115 N   0  0  0  0  0  0  0  0  0  0  0  0
    9.2768    5.6183   21.4437 C   0  0  0  0  0  0  0  0  0  0  0  0
    8.6315    7.7322   23.1768 C   0  0  0  0  0  0  0  0  0  0  0  0
   13.0537    9.9821   20.5781 C   0  0  0  0  0  0  0  0  0  0  0  0
   10.3850    4.6575   23.2386 O   0  0  0  0  0  0  0  0  0  0  0  0
    4.2069    6.8450   20.7994 C   0  0  0  0  0  0  0  0  0  0  0  0
    3.0726   10.1043   19.8522 O   0  0  0  0  0  0  0  0  0  0  0  0
    5.5057    7.1196   21.1155 C   0  0  0  0  0  0  0  0  0  0  0  0
    7.0367   11.0229   21.9948 O   0  0  0  0  0  0  0  0  0  0  0  0
  1  8  4  0
  1 12  4  0
  2  9  1  0
  2 11  4  0
  2 25  4  0
  3 12  4  0
  3 14  1  0
  3 23  4  0
  4 13  4  0
  4 21  4  0
  4 24  1  0
  5  8  4  0
  5 23  4  0
  6 18  2  0
  7 15  4  0
  7 16  1  0
  7 27  4  0
  8 18  1  0
 10 18  1  0
 10 20  1  0
 11 15  4  0
 11 26  1  0
 13 22  4  0
 16 19  1  0
 16 20  2  0
 17 19  4  0
 17 21  4  0
 19 22  4  0
 20 28  1  0
 25 27  4  0
M  END
$$$$

 Created by Python create_sdf_string function

 28 30  0  0  0  0  0  0  0  0999 V2000
   11.4592   11.2893   18.7941 C   0  0  0  0  0  0  0  0  0  0  0  0
    3.4202    7.9009   20.3866 C   0  0  0  0  0  0  0  0  0  0  0  0
   13.5280   10.3522   19.3586 C   0  0  0  0  0  0  0  0  0  0  0  0
    9.6923    5.6468   22.7891 C   0  0  0  0  0  0  0  0  0  0  0  0
   11.7756   10.2554   20.8841 N   0  0  0  0  0  0  0  0  0  0  0  0
    8.9876   11.9370   19.8757 O   0  0  0  0  0  0  0  0  0  0  0  0
    6.0167    8.4478   21.1089 C   0  0  0  0  0  0  0  0  0  0  0  0
   11.0002   10.8890   20.0262 C   0  0  0  0  0  0  0  0  0  0  0  0
    2.1721    7.7393   20.0315 O   0  0  0  0  0  0  0  0  0  0  0  0
    9.1107   10.3880   21.3769 N   0  0  0  0  0  0  0  0  0  0  0  0
    3.9102    9.2008   20.3124 C   0  0  0  0  0  0  0  0  0  0  0  0
   12.7292   10.9960   18.4597 C   0  0  0  0  0  0  0  0  0  0  0  0
    9.3798    6.6793   23.6625 C   0  0  0  0  0  0  0  0  0  0  0  0
   14.7425   10.0739   19.0802 O   0  0  0  0  0  0  0  0  0  0  0  0
    5.1894    9.4673   20.7118 C   0  0  0  0  0  0  0  0  0  0  0  0
    7.3773    8.8224   21.4870 C   0  0  0  0  0  0  0  0  0  0  0  0
    8.4391    6.6439   21.0235 C   0  0  0  0  0  0  0  0  0  0  0  0
    9.6494   11.1353   20.4167 C   0  0  0  0  0  0  0  0  0  0  0  0
    8.1431    7.6829   21.9046 C   0  0  0  0  0  0  0  0  0  0  0  0
    7.7796   10.1314   21.5115 N   0  0  0  0  0  0  0  0  0  0  0  0
    9.2768    5.6183   21.4437 C   0  0  0  0  0  0  0  0  0  0  0  0
    8.6315    7.7322   23.1768 C   0  0  0  0  0  0  0  0  0  0  0  0
   13.0537    9.9821   20.5781 C   0  0  0  0  0  0  0  0  0  0  0  0
   10.3850    4.6575   23.2386 O   0  0  0  0  0  0  0  0  0  0  0  0
    4.2069    6.8450   20.7994 C   0  0  0  0  0  0  0  0  0  0  0  0
    3.0726   10.1043   19.8522 O   0  0  0  0  0  0  0  0  0  0  0  0
    5.5057    7.1196   21.1155 C   0  0  0  0  0  0  0  0  0  0  0  0
    7.0367   11.0229   21.9948 O   0  0  0  0  0  0  0  0  0  0  0  0
  1  8  4  0
  1 12  4  0
  2  9  1  0
  2 11  4  0
  2 25  4  0
  3 12  4  0
  3 14  1  0
  3 23  4  0
  4 13  4  0
  4 21  4  0
  4 24  1  0
  5  8  4  0
  5 23  4  0
  6 18  2  0
  7 15  4  0
  7 16  1  0
  7 27  4  0
  8 18  1  0
 10 18  1  0
 10 20  1  0
 11 15  4  0
 11 26  1  0
 13 22  4  0
 16 19  1  0
 16 20  2  0
 17 19  4  0
 17 21  4  0
 19 22  4  0
 20 28  1  0
 25 27  4  0
M  END
$$$$

 Created by Python create_sdf_string function

 28 30  0  0  0  0  0  0  0  0999 V2000
   11.4592   11.2893   18.7941 C   0  0  0  0  0  0  0  0  0  0  0  0
    3.4202    7.9009   20.3866 C   0  0  0  0  0  0  0  0  0  0  0  0
   13.5280   10.3522   19.3586 C   0  0  0  0  0  0  0  0  0  0  0  0
    9.6923    5.6468   22.7891 C   0  0  0  0  0  0  0  0  0  0  0  0
   11.7756   10.2554   20.8841 N   0  0  0  0  0  0  0  0  0  0  0  0
    8.9876   11.9370   19.8757 O   0  0  0  0  0  0  0  0  0  0  0  0
    6.0167    8.4478   21.1089 C   0  0  0  0  0  0  0  0  0  0  0  0
   11.0002   10.8890   20.0262 C   0  0  0  0  0  0  0  0  0  0  0  0
    2.1721    7.7393   20.0315 O   0  0  0  0  0  0  0  0  0  0  0  0
    9.1107   10.3880   21.3769 N   0  0  0  0  0  0  0  0  0  0  0  0
    3.9102    9.2008   20.3124 C   0  0  0  0  0  0  0  0  0  0  0  0
   12.7292   10.9960   18.4597 C   0  0  0  0  0  0  0  0  0  0  0  0
    9.3798    6.6793   23.6625 C   0  0  0  0  0  0  0  0  0  0  0  0
   14.7425   10.0739   19.0802 O   0  0  0  0  0  0  0  0  0  0  0  0
    5.1894    9.4673   20.7118 C   0  0  0  0  0  0  0  0  0  0  0  0
    7.3773    8.8224   21.4870 C   0  0  0  0  0  0  0  0  0  0  0  0
    8.4391    6.6439   21.0235 C   0  0  0  0  0  0  0  0  0  0  0  0
    9.6494   11.1353   20.4167 C   0  0  0  0  0  0  0  0  0  0  0  0
    8.1431    7.6829   21.9046 C   0  0  0  0  0  0  0  0  0  0  0  0
    7.7796   10.1314   21.5115 N   0  0  0  0  0  0  0  0  0  0  0  0
    9.2768    5.6183   21.4437 C   0  0  0  0  0  0  0  0  0  0  0  0
    8.6315    7.7322   23.1768 C   0  0  0  0  0  0  0  0  0  0  0  0
   13.0537    9.9821   20.5781 C   0  0  0  0  0  0  0  0  0  0  0  0
   10.3850    4.6575   23.2386 O   0  0  0  0  0  0  0  0  0  0  0  0
    4.2069    6.8450   20.7994 C   0  0  0  0  0  0  0  0  0  0  0  0
    3.0726   10.1043   19.8522 O   0  0  0  0  0  0  0  0  0  0  0  0
    5.5057    7.1196   21.1155 C   0  0  0  0  0  0  0  0  0  0  0  0
    7.0367   11.0229   21.9948 O   0  0  0  0  0  0  0  0  0  0  0  0
  1  8  4  0
  1 12  4  0
  2  9  1  0
  2 11  4  0
  2 25  4  0
  3 12  4  0
  3 14  1  0
  3 23  4  0
  4 13  4  0
  4 21  4  0
  4 24  1  0
  5  8  4  0
  5 23  4  0
  6 18  2  0
  7 15  4  0
  7 16  1  0
  7 27  4  0
  8 18  1  0
 10 18  1  0
 10 20  1  0
 11 15  4  0
 11 26  1  0
 13 22  4  0
 16 19  1  0
 16 20  2  0
 17 19  4  0
 17 21  4  0
 19 22  4  0
 20 28  1  0
 25 27  4  0
M  END
$$$$

 Created by Python create_sdf_string function

 28 30  0  0  0  0  0  0  0  0999 V2000
   11.4592   11.2893   18.7941 C   0  0  0  0  0  0  0  0  0  0  0  0
    3.4202    7.9009   20.3866 C   0  0  0  0  0  0  0  0  0  0  0  0
   13.5280   10.3522   19.3586 C   0  0  0  0  0  0  0  0  0  0  0  0
    9.6923    5.6468   22.7891 C   0  0  0  0  0  0  0  0  0  0  0  0
   11.7756   10.2554   20.8841 N   0  0  0  0  0  0  0  0  0  0  0  0
    8.9876   11.9370   19.8757 O   0  0  0  0  0  0  0  0  0  0  0  0
    6.0167    8.4478   21.1089 C   0  0  0  0  0  0  0  0  0  0  0  0
   11.0002   10.8890   20.0262 C   0  0  0  0  0  0  0  0  0  0  0  0
    2.1721    7.7393   20.0315 O   0  0  0  0  0  0  0  0  0  0  0  0
    9.1107   10.3880   21.3769 N   0  0  0  0  0  0  0  0  0  0  0  0
    3.9102    9.2008   20.3124 C   0  0  0  0  0  0  0  0  0  0  0  0
   12.7292   10.9960   18.4597 C   0  0  0  0  0  0  0  0  0  0  0  0
    9.3798    6.6793   23.6625 C   0  0  0  0  0  0  0  0  0  0  0  0
   14.7425   10.0739   19.0802 O   0  0  0  0  0  0  0  0  0  0  0  0
    5.1894    9.4673   20.7118 C   0  0  0  0  0  0  0  0  0  0  0  0
    7.3773    8.8224   21.4870 C   0  0  0  0  0  0  0  0  0  0  0  0
    8.4391    6.6439   21.0235 C   0  0  0  0  0  0  0  0  0  0  0  0
    9.6494   11.1353   20.4167 C   0  0  0  0  0  0  0  0  0  0  0  0
    8.1431    7.6829   21.9046 C   0  0  0  0  0  0  0  0  0  0  0  0
    7.7796   10.1314   21.5115 N   0  0  0  0  0  0  0  0  0  0  0  0
    9.2768    5.6183   21.4437 C   0  0  0  0  0  0  0  0  0  0  0  0
    8.6315    7.7322   23.1768 C   0  0  0  0  0  0  0  0  0  0  0  0
   13.0537    9.9821   20.5781 C   0  0  0  0  0  0  0  0  0  0  0  0
   10.3850    4.6575   23.2386 O   0  0  0  0  0  0  0  0  0  0  0  0
    4.2069    6.8450   20.7994 C   0  0  0  0  0  0  0  0  0  0  0  0
    3.0726   10.1043   19.8522 O   0  0  0  0  0  0  0  0  0  0  0  0
    5.5057    7.1196   21.1155 C   0  0  0  0  0  0  0  0  0  0  0  0
    7.0367   11.0229   21.9948 O   0  0  0  0  0  0  0  0  0  0  0  0
  1  8  4  0
  1 12  4  0
  2  9  1  0
  2 11  4  0
  2 25  4  0
  3 12  4  0
  3 14  1  0
  3 23  4  0
  4 13  4  0
  4 21  4  0
  4 24  1  0
  5  8  4  0
  5 23  4  0
  6 18  2  0
  7 15  4  0
  7 16  1  0
  7 27  4  0
  8 18  1  0
 10 18  1  0
 10 20  1  0
 11 15  4  0
 11 26  1  0
 13 22  4  0
 16 19  1  0
 16 20  2  0
 17 19  4  0
 17 21  4  0
 19 22  4  0
 20 28  1  0
 25 27  4  0
M  END
$$$$

 Created by Python create_sdf_string function

 28 30  0  0  0  0  0  0  0  0999 V2000
   11.4592   11.2893   18.7941 C   0  0  0  0  0  0  0  0  0  0  0  0
    3.4202    7.9009   20.3866 C   0  0  0  0  0  0  0  0  0  0  0  0
   13.5280   10.3522   19.3586 C   0  0  0  0  0  0  0  0  0  0  0  0
    9.6923    5.6468   22.7891 C   0  0  0  0  0  0  0  0  0  0  0  0
   11.7756   10.2554   20.8841 N   0  0  0  0  0  0  0  0  0  0  0  0
    8.9876   11.9370   19.8757 O   0  0  0  0  0  0  0  0  0  0  0  0
    6.0167    8.4478   21.1089 C   0  0  0  0  0  0  0  0  0  0  0  0
   11.0002   10.8890   20.0262 C   0  0  0  0  0  0  0  0  0  0  0  0
    2.1721    7.7393   20.0315 O   0  0  0  0  0  0  0  0  0  0  0  0
    9.1107   10.3880   21.3769 N   0  0  0  0  0  0  0  0  0  0  0  0
    3.9102    9.2008   20.3124 C   0  0  0  0  0  0  0  0  0  0  0  0
   12.7292   10.9960   18.4597 C   0  0  0  0  0  0  0  0  0  0  0  0
    9.3798    6.6793   23.6625 C   0  0  0  0  0  0  0  0  0  0  0  0
   14.7425   10.0739   19.0802 O   0  0  0  0  0  0  0  0  0  0  0  0
    5.1894    9.4673   20.7118 C   0  0  0  0  0  0  0  0  0  0  0  0
    7.3773    8.8224   21.4870 C   0  0  0  0  0  0  0  0  0  0  0  0
    8.4391    6.6439   21.0235 C   0  0  0  0  0  0  0  0  0  0  0  0
    9.6494   11.1353   20.4167 C   0  0  0  0  0  0  0  0  0  0  0  0
    8.1431    7.6829   21.9046 C   0  0  0  0  0  0  0  0  0  0  0  0
    7.7796   10.1314   21.5115 N   0  0  0  0  0  0  0  0  0  0  0  0
    9.2768    5.6183   21.4437 C   0  0  0  0  0  0  0  0  0  0  0  0
    8.6315    7.7322   23.1768 C   0  0  0  0  0  0  0  0  0  0  0  0
   13.0537    9.9821   20.5781 C   0  0  0  0  0  0  0  0  0  0  0  0
   10.3850    4.6575   23.2386 O   0  0  0  0  0  0  0  0  0  0  0  0
    4.2069    6.8450   20.7994 C   0  0  0  0  0  0  0  0  0  0  0  0
    3.0726   10.1043   19.8522 O   0  0  0  0  0  0  0  0  0  0  0  0
    5.5057    7.1196   21.1155 C   0  0  0  0  0  0  0  0  0  0  0  0
    7.0367   11.0229   21.9948 O   0  0  0  0  0  0  0  0  0  0  0  0
  1  8  4  0
  1 12  4  0
  2  9  1  0
  2 11  4  0
  2 25  4  0
  3 12  4  0
  3 14  1  0
  3 23  4  0
  4 13  4  0
  4 21  4  0
  4 24  1  0
  5  8  4  0
  5 23  4  0
  6 18  2  0
  7 15  4  0
  7 16  1  0
  7 27  4  0
  8 18  1  0
 10 18  1  0
 10 20  1  0
 11 15  4  0
 11 26  1  0
 13 22  4  0
 16 19  1  0
 16 20  2  0
 17 19  4  0
 17 21  4  0
 19 22  4  0
 20 28  1  0
 25 27  4  0
M  END
$$$$

 Created by Python create_sdf_string function

 28 30  0  0  0  0  0  0  0  0999 V2000
   11.4592   11.2893   18.7941 C   0  0  0  0  0  0  0  0  0  0  0  0
    3.4202    7.9009   20.3866 C   0  0  0  0  0  0  0  0  0  0  0  0
   13.5280   10.3522   19.3586 C   0  0  0  0  0  0  0  0  0  0  0  0
    9.6923    5.6468   22.7891 C   0  0  0  0  0  0  0  0  0  0  0  0
   11.7756   10.2554   20.8841 N   0  0  0  0  0  0  0  0  0  0  0  0
    8.9876   11.9370   19.8757 O   0  0  0  0  0  0  0  0  0  0  0  0
    6.0167    8.4478   21.1089 C   0  0  0  0  0  0  0  0  0  0  0  0
   11.0002   10.8890   20.0262 C   0  0  0  0  0  0  0  0  0  0  0  0
    2.1721    7.7393   20.0315 O   0  0  0  0  0  0  0  0  0  0  0  0
    9.1107   10.3880   21.3769 N   0  0  0  0  0  0  0  0  0  0  0  0
    3.9102    9.2008   20.3124 C   0  0  0  0  0  0  0  0  0  0  0  0
   12.7292   10.9960   18.4597 C   0  0  0  0  0  0  0  0  0  0  0  0
    9.3798    6.6793   23.6625 C   0  0  0  0  0  0  0  0  0  0  0  0
   14.7425   10.0739   19.0802 O   0  0  0  0  0  0  0  0  0  0  0  0
    5.1894    9.4673   20.7118 C   0  0  0  0  0  0  0  0  0  0  0  0
    7.3773    8.8224   21.4870 C   0  0  0  0  0  0  0  0  0  0  0  0
    8.4391    6.6439   21.0235 C   0  0  0  0  0  0  0  0  0  0  0  0
    9.6494   11.1353   20.4167 C   0  0  0  0  0  0  0  0  0  0  0  0
    8.1431    7.6829   21.9046 C   0  0  0  0  0  0  0  0  0  0  0  0
    7.7796   10.1314   21.5115 N   0  0  0  0  0  0  0  0  0  0  0  0
    9.2768    5.6183   21.4437 C   0  0  0  0  0  0  0  0  0  0  0  0
    8.6315    7.7322   23.1768 C   0  0  0  0  0  0  0  0  0  0  0  0
   13.0537    9.9821   20.5781 C   0  0  0  0  0  0  0  0  0  0  0  0
   10.3850    4.6575   23.2386 O   0  0  0  0  0  0  0  0  0  0  0  0
    4.2069    6.8450   20.7994 C   0  0  0  0  0  0  0  0  0  0  0  0
    3.0726   10.1043   19.8522 O   0  0  0  0  0  0  0  0  0  0  0  0
    5.5057    7.1196   21.1155 C   0  0  0  0  0  0  0  0  0  0  0  0
    7.0367   11.0229   21.9948 O   0  0  0  0  0  0  0  0  0  0  0  0
  1  8  4  0
  1 12  4  0
  2  9  1  0
  2 11  4  0
  2 25  4  0
  3 12  4  0
  3 14  1  0
  3 23  4  0
  4 13  4  0
  4 21  4  0
  4 24  1  0
  5  8  4  0
  5 23  4  0
  6 18  2  0
  7 15  4  0
  7 16  1  0
  7 27  4  0
  8 18  1  0
 10 18  1  0
 10 20  1  0
 11 15  4  0
 11 26  1  0
 13 22  4  0
 16 19  1  0
 16 20  2  0
 17 19  4  0
 17 21  4  0
 19 22  4  0
 20 28  1  0
 25 27  4  0
M  END
$$$$

 Created by Python create_sdf_string function

 28 30  0  0  0  0  0  0  0  0999 V2000
   11.4592   11.2893   18.7941 C   0  0  0  0  0  0  0  0  0  0  0  0
    3.4202    7.9009   20.3866 C   0  0  0  0  0  0  0  0  0  0  0  0
   13.5280   10.3522   19.3586 C   0  0  0  0  0  0  0  0  0  0  0  0
    9.6923    5.6468   22.7891 C   0  0  0  0  0  0  0  0  0  0  0  0
   11.7756   10.2554   20.8841 N   0  0  0  0  0  0  0  0  0  0  0  0
    8.9876   11.9370   19.8757 O   0  0  0  0  0  0  0  0  0  0  0  0
    6.0167    8.4478   21.1089 C   0  0  0  0  0  0  0  0  0  0  0  0
   11.0002   10.8890   20.0262 C   0  0  0  0  0  0  0  0  0  0  0  0
    2.1721    7.7393   20.0315 O   0  0  0  0  0  0  0  0  0  0  0  0
    9.1107   10.3880   21.3769 N   0  0  0  0  0  0  0  0  0  0  0  0
    3.9102    9.2008   20.3124 C   0  0  0  0  0  0  0  0  0  0  0  0
   12.7292   10.9960   18.4597 C   0  0  0  0  0  0  0  0  0  0  0  0
    9.3798    6.6793   23.6625 C   0  0  0  0  0  0  0  0  0  0  0  0
   14.7425   10.0739   19.0802 O   0  0  0  0  0  0  0  0  0  0  0  0
    5.1894    9.4673   20.7118 C   0  0  0  0  0  0  0  0  0  0  0  0
    7.3773    8.8224   21.4870 C   0  0  0  0  0  0  0  0  0  0  0  0
    8.4391    6.6439   21.0235 C   0  0  0  0  0  0  0  0  0  0  0  0
    9.6494   11.1353   20.4167 C   0  0  0  0  0  0  0  0  0  0  0  0
    8.1431    7.6829   21.9046 C   0  0  0  0  0  0  0  0  0  0  0  0
    7.7796   10.1314   21.5115 N   0  0  0  0  0  0  0  0  0  0  0  0
    9.2768    5.6183   21.4437 C   0  0  0  0  0  0  0  0  0  0  0  0
    8.6315    7.7322   23.1768 C   0  0  0  0  0  0  0  0  0  0  0  0
   13.0537    9.9821   20.5781 C   0  0  0  0  0  0  0  0  0  0  0  0
   10.3850    4.6575   23.2386 O   0  0  0  0  0  0  0  0  0  0  0  0
    4.2069    6.8450   20.7994 C   0  0  0  0  0  0  0  0  0  0  0  0
    3.0726   10.1043   19.8522 O   0  0  0  0  0  0  0  0  0  0  0  0
    5.5057    7.1196   21.1155 C   0  0  0  0  0  0  0  0  0  0  0  0
    7.0367   11.0229   21.9948 O   0  0  0  0  0  0  0  0  0  0  0  0
  1  8  4  0
  1 12  4  0
  2  9  1  0
  2 11  4  0
  2 25  4  0
  3 12  4  0
  3 14  1  0
  3 23  4  0
  4 13  4  0
  4 21  4  0
  4 24  1  0
  5  8  4  0
  5 23  4  0
  6 18  2  0
  7 15  4  0
  7 16  1  0
  7 27  4  0
  8 18  1  0
 10 18  1  0
 10 20  1  0
 11 15  4  0
 11 26  1  0
 13 22  4  0
 16 19  1  0
 16 20  2  0
 17 19  4  0
 17 21  4  0
 19 22  4  0
 20 28  1  0
 25 27  4  0
M  END
$$$$

 Created by Python create_sdf_string function

 28 30  0  0  0  0  0  0  0  0999 V2000
   11.4592   11.2893   18.7941 C   0  0  0  0  0  0  0  0  0  0  0  0
    3.4202    7.9009   20.3866 C   0  0  0  0  0  0  0  0  0  0  0  0
   13.5280   10.3522   19.3586 C   0  0  0  0  0  0  0  0  0  0  0  0
    9.6923    5.6468   22.7891 C   0  0  0  0  0  0  0  0  0  0  0  0
   11.7756   10.2554   20.8841 N   0  0  0  0  0  0  0  0  0  0  0  0
    8.9876   11.9370   19.8757 O   0  0  0  0  0  0  0  0  0  0  0  0
    6.0167    8.4478   21.1089 C   0  0  0  0  0  0  0  0  0  0  0  0
   11.0002   10.8890   20.0262 C   0  0  0  0  0  0  0  0  0  0  0  0
    2.1721    7.7393   20.0315 O   0  0  0  0  0  0  0  0  0  0  0  0
    9.1107   10.3880   21.3769 N   0  0  0  0  0  0  0  0  0  0  0  0
    3.9102    9.2008   20.3124 C   0  0  0  0  0  0  0  0  0  0  0  0
   12.7292   10.9960   18.4597 C   0  0  0  0  0  0  0  0  0  0  0  0
    9.3798    6.6793   23.6625 C   0  0  0  0  0  0  0  0  0  0  0  0
   14.7425   10.0739   19.0802 O   0  0  0  0  0  0  0  0  0  0  0  0
    5.1894    9.4673   20.7118 C   0  0  0  0  0  0  0  0  0  0  0  0
    7.3773    8.8224   21.4870 C   0  0  0  0  0  0  0  0  0  0  0  0
    8.4391    6.6439   21.0235 C   0  0  0  0  0  0  0  0  0  0  0  0
    9.6494   11.1353   20.4167 C   0  0  0  0  0  0  0  0  0  0  0  0
    8.1431    7.6829   21.9046 C   0  0  0  0  0  0  0  0  0  0  0  0
    7.7796   10.1314   21.5115 N   0  0  0  0  0  0  0  0  0  0  0  0
    9.2768    5.6183   21.4437 C   0  0  0  0  0  0  0  0  0  0  0  0
    8.6315    7.7322   23.1768 C   0  0  0  0  0  0  0  0  0  0  0  0
   13.0537    9.9821   20.5781 C   0  0  0  0  0  0  0  0  0  0  0  0
   10.3850    4.6575   23.2386 O   0  0  0  0  0  0  0  0  0  0  0  0
    4.2069    6.8450   20.7994 C   0  0  0  0  0  0  0  0  0  0  0  0
    3.0726   10.1043   19.8522 O   0  0  0  0  0  0  0  0  0  0  0  0
    5.5057    7.1196   21.1155 C   0  0  0  0  0  0  0  0  0  0  0  0
    7.0367   11.0229   21.9948 O   0  0  0  0  0  0  0  0  0  0  0  0
  1  8  4  0
  1 12  4  0
  2  9  1  0
  2 11  4  0
  2 25  4  0
  3 12  4  0
  3 14  1  0
  3 23  4  0
  4 13  4  0
  4 21  4  0
  4 24  1  0
  5  8  4  0
  5 23  4  0
  6 18  2  0
  7 15  4  0
  7 16  1  0
  7 27  4  0
  8 18  1  0
 10 18  1  0
 10 20  1  0
 11 15  4  0
 11 26  1  0
 13 22  4  0
 16 19  1  0
 16 20  2  0
 17 19  4  0
 17 21  4  0
 19 22  4  0
 20 28  1  0
 25 27  4  0
M  END
$$$$

 Created by Python create_sdf_string function

 28 30  0  0  0  0  0  0  0  0999 V2000
   11.4592   11.2893   18.7941 C   0  0  0  0  0  0  0  0  0  0  0  0
    3.4202    7.9009   20.3866 C   0  0  0  0  0  0  0  0  0  0  0  0
   13.5280   10.3522   19.3586 C   0  0  0  0  0  0  0  0  0  0  0  0
    9.6923    5.6468   22.7891 C   0  0  0  0  0  0  0  0  0  0  0  0
   11.7756   10.2554   20.8841 N   0  0  0  0  0  0  0  0  0  0  0  0
    8.9876   11.9370   19.8757 O   0  0  0  0  0  0  0  0  0  0  0  0
    6.0167    8.4478   21.1089 C   0  0  0  0  0  0  0  0  0  0  0  0
   11.0002   10.8890   20.0262 C   0  0  0  0  0  0  0  0  0  0  0  0
    2.1721    7.7393   20.0315 O   0  0  0  0  0  0  0  0  0  0  0  0
    9.1107   10.3880   21.3769 N   0  0  0  0  0  0  0  0  0  0  0  0
    3.9102    9.2008   20.3124 C   0  0  0  0  0  0  0  0  0  0  0  0
   12.7292   10.9960   18.4597 C   0  0  0  0  0  0  0  0  0  0  0  0
    9.3798    6.6793   23.6625 C   0  0  0  0  0  0  0  0  0  0  0  0
   14.7425   10.0739   19.0802 O   0  0  0  0  0  0  0  0  0  0  0  0
    5.1894    9.4673   20.7118 C   0  0  0  0  0  0  0  0  0  0  0  0
    7.3773    8.8224   21.4870 C   0  0  0  0  0  0  0  0  0  0  0  0
    8.4391    6.6439   21.0235 C   0  0  0  0  0  0  0  0  0  0  0  0
    9.6494   11.1353   20.4167 C   0  0  0  0  0  0  0  0  0  0  0  0
    8.1431    7.6829   21.9046 C   0  0  0  0  0  0  0  0  0  0  0  0
    7.7796   10.1314   21.5115 N   0  0  0  0  0  0  0  0  0  0  0  0
    9.2768    5.6183   21.4437 C   0  0  0  0  0  0  0  0  0  0  0  0
    8.6315    7.7322   23.1768 C   0  0  0  0  0  0  0  0  0  0  0  0
   13.0537    9.9821   20.5781 C   0  0  0  0  0  0  0  0  0  0  0  0
   10.3850    4.6575   23.2386 O   0  0  0  0  0  0  0  0  0  0  0  0
    4.2069    6.8450   20.7994 C   0  0  0  0  0  0  0  0  0  0  0  0
    3.0726   10.1043   19.8522 O   0  0  0  0  0  0  0  0  0  0  0  0
    5.5057    7.1196   21.1155 C   0  0  0  0  0  0  0  0  0  0  0  0
    7.0367   11.0229   21.9948 O   0  0  0  0  0  0  0  0  0  0  0  0
  1  8  4  0
  1 12  4  0
  2  9  1  0
  2 11  4  0
  2 25  4  0
  3 12  4  0
  3 14  1  0
  3 23  4  0
  4 13  4  0
  4 21  4  0
  4 24  1  0
  5  8  4  0
  5 23  4  0
  6 18  2  0
  7 15  4  0
  7 16  1  0
  7 27  4  0
  8 18  1  0
 10 18  1  0
 10 20  1  0
 11 15  4  0
 11 26  1  0
 13 22  4  0
 16 19  1  0
 16 20  2  0
 17 19  4  0
 17 21  4  0
 19 22  4  0
 20 28  1  0
 25 27  4  0
M  END
$$$$

 Created by Python create_sdf_string function

 28 30  0  0  0  0  0  0  0  0999 V2000
   11.4592   11.2893   18.7941 C   0  0  0  0  0  0  0  0  0  0  0  0
    3.4202    7.9009   20.3866 C   0  0  0  0  0  0  0  0  0  0  0  0
   13.5280   10.3522   19.3586 C   0  0  0  0  0  0  0  0  0  0  0  0
    9.6923    5.6468   22.7891 C   0  0  0  0  0  0  0  0  0  0  0  0
   11.7756   10.2554   20.8841 N   0  0  0  0  0  0  0  0  0  0  0  0
    8.9876   11.9370   19.8757 O   0  0  0  0  0  0  0  0  0  0  0  0
    6.0167    8.4478   21.1089 C   0  0  0  0  0  0  0  0  0  0  0  0
   11.0002   10.8890   20.0262 C   0  0  0  0  0  0  0  0  0  0  0  0
    2.1721    7.7393   20.0315 O   0  0  0  0  0  0  0  0  0  0  0  0
    9.1107   10.3880   21.3769 N   0  0  0  0  0  0  0  0  0  0  0  0
    3.9102    9.2008   20.3124 C   0  0  0  0  0  0  0  0  0  0  0  0
   12.7292   10.9960   18.4597 C   0  0  0  0  0  0  0  0  0  0  0  0
    9.3798    6.6793   23.6625 C   0  0  0  0  0  0  0  0  0  0  0  0
   14.7425   10.0739   19.0802 O   0  0  0  0  0  0  0  0  0  0  0  0
    5.1894    9.4673   20.7118 C   0  0  0  0  0  0  0  0  0  0  0  0
    7.3773    8.8224   21.4870 C   0  0  0  0  0  0  0  0  0  0  0  0
    8.4391    6.6439   21.0235 C   0  0  0  0  0  0  0  0  0  0  0  0
    9.6494   11.1353   20.4167 C   0  0  0  0  0  0  0  0  0  0  0  0
    8.1431    7.6829   21.9046 C   0  0  0  0  0  0  0  0  0  0  0  0
    7.7796   10.1314   21.5115 N   0  0  0  0  0  0  0  0  0  0  0  0
    9.2768    5.6183   21.4437 C   0  0  0  0  0  0  0  0  0  0  0  0
    8.6315    7.7322   23.1768 C   0  0  0  0  0  0  0  0  0  0  0  0
   13.0537    9.9821   20.5781 C   0  0  0  0  0  0  0  0  0  0  0  0
   10.3850    4.6575   23.2386 O   0  0  0  0  0  0  0  0  0  0  0  0
    4.2069    6.8450   20.7994 C   0  0  0  0  0  0  0  0  0  0  0  0
    3.0726   10.1043   19.8522 O   0  0  0  0  0  0  0  0  0  0  0  0
    5.5057    7.1196   21.1155 C   0  0  0  0  0  0  0  0  0  0  0  0
    7.0367   11.0229   21.9948 O   0  0  0  0  0  0  0  0  0  0  0  0
  1  8  4  0
  1 12  4  0
  2  9  1  0
  2 11  4  0
  2 25  4  0
  3 12  4  0
  3 14  1  0
  3 23  4  0
  4 13  4  0
  4 21  4  0
  4 24  1  0
  5  8  4  0
  5 23  4  0
  6 18  2  0
  7 15  4  0
  7 16  1  0
  7 27  4  0
  8 18  1  0
 10 18  1  0
 10 20  1  0
 11 15  4  0
 11 26  1  0
 13 22  4  0
 16 19  1  0
 16 20  2  0
 17 19  4  0
 17 21  4  0
 19 22  4  0
 20 28  1  0
 25 27  4  0
M  END
$$$$

 Created by Python create_sdf_string function

 28 30  0  0  0  0  0  0  0  0999 V2000
   11.4592   11.2893   18.7941 C   0  0  0  0  0  0  0  0  0  0  0  0
    3.4202    7.9009   20.3866 C   0  0  0  0  0  0  0  0  0  0  0  0
   13.5280   10.3522   19.3586 C   0  0  0  0  0  0  0  0  0  0  0  0
    9.6923    5.6468   22.7891 C   0  0  0  0  0  0  0  0  0  0  0  0
   11.7756   10.2554   20.8841 N   0  0  0  0  0  0  0  0  0  0  0  0
    8.9876   11.9370   19.8757 O   0  0  0  0  0  0  0  0  0  0  0  0
    6.0167    8.4478   21.1089 C   0  0  0  0  0  0  0  0  0  0  0  0
   11.0002   10.8890   20.0262 C   0  0  0  0  0  0  0  0  0  0  0  0
    2.1721    7.7393   20.0315 O   0  0  0  0  0  0  0  0  0  0  0  0
    9.1107   10.3880   21.3769 N   0  0  0  0  0  0  0  0  0  0  0  0
    3.9102    9.2008   20.3124 C   0  0  0  0  0  0  0  0  0  0  0  0
   12.7292   10.9960   18.4597 C   0  0  0  0  0  0  0  0  0  0  0  0
    9.3798    6.6793   23.6625 C   0  0  0  0  0  0  0  0  0  0  0  0
   14.7425   10.0739   19.0802 O   0  0  0  0  0  0  0  0  0  0  0  0
    5.1894    9.4673   20.7118 C   0  0  0  0  0  0  0  0  0  0  0  0
    7.3773    8.8224   21.4870 C   0  0  0  0  0  0  0  0  0  0  0  0
    8.4391    6.6439   21.0235 C   0  0  0  0  0  0  0  0  0  0  0  0
    9.6494   11.1353   20.4167 C   0  0  0  0  0  0  0  0  0  0  0  0
    8.1431    7.6829   21.9046 C   0  0  0  0  0  0  0  0  0  0  0  0
    7.7796   10.1314   21.5115 N   0  0  0  0  0  0  0  0  0  0  0  0
    9.2768    5.6183   21.4437 C   0  0  0  0  0  0  0  0  0  0  0  0
    8.6315    7.7322   23.1768 C   0  0  0  0  0  0  0  0  0  0  0  0
   13.0537    9.9821   20.5781 C   0  0  0  0  0  0  0  0  0  0  0  0
   10.3850    4.6575   23.2386 O   0  0  0  0  0  0  0  0  0  0  0  0
    4.2069    6.8450   20.7994 C   0  0  0  0  0  0  0  0  0  0  0  0
    3.0726   10.1043   19.8522 O   0  0  0  0  0  0  0  0  0  0  0  0
    5.5057    7.1196   21.1155 C   0  0  0  0  0  0  0  0  0  0  0  0
    7.0367   11.0229   21.9948 O   0  0  0  0  0  0  0  0  0  0  0  0
  1  8  4  0
  1 12  4  0
  2  9  1  0
  2 11  4  0
  2 25  4  0
  3 12  4  0
  3 14  1  0
  3 23  4  0
  4 13  4  0
  4 21  4  0
  4 24  1  0
  5  8  4  0
  5 23  4  0
  6 18  2  0
  7 15  4  0
  7 16  1  0
  7 27  4  0
  8 18  1  0
 10 18  1  0
 10 20  1  0
 11 15  4  0
 11 26  1  0
 13 22  4  0
 16 19  1  0
 16 20  2  0
 17 19  4  0
 17 21  4  0
 19 22  4  0
 20 28  1  0
 25 27  4  0
M  END
$$$$

 Created by Python create_sdf_string function

 28 30  0  0  0  0  0  0  0  0999 V2000
   11.4592   11.2893   18.7941 C   0  0  0  0  0  0  0  0  0  0  0  0
    3.4202    7.9009   20.3866 C   0  0  0  0  0  0  0  0  0  0  0  0
   13.5280   10.3522   19.3586 C   0  0  0  0  0  0  0  0  0  0  0  0
    9.6923    5.6468   22.7891 C   0  0  0  0  0  0  0  0  0  0  0  0
   11.7756   10.2554   20.8841 N   0  0  0  0  0  0  0  0  0  0  0  0
    8.9876   11.9370   19.8757 O   0  0  0  0  0  0  0  0  0  0  0  0
    6.0167    8.4478   21.1089 C   0  0  0  0  0  0  0  0  0  0  0  0
   11.0002   10.8890   20.0262 C   0  0  0  0  0  0  0  0  0  0  0  0
    2.1721    7.7393   20.0315 O   0  0  0  0  0  0  0  0  0  0  0  0
    9.1107   10.3880   21.3769 N   0  0  0  0  0  0  0  0  0  0  0  0
    3.9102    9.2008   20.3124 C   0  0  0  0  0  0  0  0  0  0  0  0
   12.7292   10.9960   18.4597 C   0  0  0  0  0  0  0  0  0  0  0  0
    9.3798    6.6793   23.6625 C   0  0  0  0  0  0  0  0  0  0  0  0
   14.7425   10.0739   19.0802 O   0  0  0  0  0  0  0  0  0  0  0  0
    5.1894    9.4673   20.7118 C   0  0  0  0  0  0  0  0  0  0  0  0
    7.3773    8.8224   21.4870 C   0  0  0  0  0  0  0  0  0  0  0  0
    8.4391    6.6439   21.0235 C   0  0  0  0  0  0  0  0  0  0  0  0
    9.6494   11.1353   20.4167 C   0  0  0  0  0  0  0  0  0  0  0  0
    8.1431    7.6829   21.9046 C   0  0  0  0  0  0  0  0  0  0  0  0
    7.7796   10.1314   21.5115 N   0  0  0  0  0  0  0  0  0  0  0  0
    9.2768    5.6183   21.4437 C   0  0  0  0  0  0  0  0  0  0  0  0
    8.6315    7.7322   23.1768 C   0  0  0  0  0  0  0  0  0  0  0  0
   13.0537    9.9821   20.5781 C   0  0  0  0  0  0  0  0  0  0  0  0
   10.3850    4.6575   23.2386 O   0  0  0  0  0  0  0  0  0  0  0  0
    4.2069    6.8450   20.7994 C   0  0  0  0  0  0  0  0  0  0  0  0
    3.0726   10.1043   19.8522 O   0  0  0  0  0  0  0  0  0  0  0  0
    5.5057    7.1196   21.1155 C   0  0  0  0  0  0  0  0  0  0  0  0
    7.0367   11.0229   21.9948 O   0  0  0  0  0  0  0  0  0  0  0  0
  1  8  4  0
  1 12  4  0
  2  9  1  0
  2 11  4  0
  2 25  4  0
  3 12  4  0
  3 14  1  0
  3 23  4  0
  4 13  4  0
  4 21  4  0
  4 24  1  0
  5  8  4  0
  5 23  4  0
  6 18  2  0
  7 15  4  0
  7 16  1  0
  7 27  4  0
  8 18  1  0
 10 18  1  0
 10 20  1  0
 11 15  4  0
 11 26  1  0
 13 22  4  0
 16 19  1  0
 16 20  2  0
 17 19  4  0
 17 21  4  0
 19 22  4  0
 20 28  1  0
 25 27  4  0
M  END
$$$$

 Created by Python create_sdf_string function

 28 30  0  0  0  0  0  0  0  0999 V2000
   11.4592   11.2893   18.7941 C   0  0  0  0  0  0  0  0  0  0  0  0
    3.4202    7.9009   20.3866 C   0  0  0  0  0  0  0  0  0  0  0  0
   13.5280   10.3522   19.3586 C   0  0  0  0  0  0  0  0  0  0  0  0
    9.6923    5.6468   22.7891 C   0  0  0  0  0  0  0  0  0  0  0  0
   11.7756   10.2554   20.8841 N   0  0  0  0  0  0  0  0  0  0  0  0
    8.9876   11.9370   19.8757 O   0  0  0  0  0  0  0  0  0  0  0  0
    6.0167    8.4478   21.1089 C   0  0  0  0  0  0  0  0  0  0  0  0
   11.0002   10.8890   20.0262 C   0  0  0  0  0  0  0  0  0  0  0  0
    2.1721    7.7393   20.0315 O   0  0  0  0  0  0  0  0  0  0  0  0
    9.1107   10.3880   21.3769 N   0  0  0  0  0  0  0  0  0  0  0  0
    3.9102    9.2008   20.3124 C   0  0  0  0  0  0  0  0  0  0  0  0
   12.7292   10.9960   18.4597 C   0  0  0  0  0  0  0  0  0  0  0  0
    9.3798    6.6793   23.6625 C   0  0  0  0  0  0  0  0  0  0  0  0
   14.7425   10.0739   19.0802 O   0  0  0  0  0  0  0  0  0  0  0  0
    5.1894    9.4673   20.7118 C   0  0  0  0  0  0  0  0  0  0  0  0
    7.3773    8.8224   21.4870 C   0  0  0  0  0  0  0  0  0  0  0  0
    8.4391    6.6439   21.0235 C   0  0  0  0  0  0  0  0  0  0  0  0
    9.6494   11.1353   20.4167 C   0  0  0  0  0  0  0  0  0  0  0  0
    8.1431    7.6829   21.9046 C   0  0  0  0  0  0  0  0  0  0  0  0
    7.7796   10.1314   21.5115 N   0  0  0  0  0  0  0  0  0  0  0  0
    9.2768    5.6183   21.4437 C   0  0  0  0  0  0  0  0  0  0  0  0
    8.6315    7.7322   23.1768 C   0  0  0  0  0  0  0  0  0  0  0  0
   13.0537    9.9821   20.5781 C   0  0  0  0  0  0  0  0  0  0  0  0
   10.3850    4.6575   23.2386 O   0  0  0  0  0  0  0  0  0  0  0  0
    4.2069    6.8450   20.7994 C   0  0  0  0  0  0  0  0  0  0  0  0
    3.0726   10.1043   19.8522 O   0  0  0  0  0  0  0  0  0  0  0  0
    5.5057    7.1196   21.1155 C   0  0  0  0  0  0  0  0  0  0  0  0
    7.0367   11.0229   21.9948 O   0  0  0  0  0  0  0  0  0  0  0  0
  1  8  4  0
  1 12  4  0
  2  9  1  0
  2 11  4  0
  2 25  4  0
  3 12  4  0
  3 14  1  0
  3 23  4  0
  4 13  4  0
  4 21  4  0
  4 24  1  0
  5  8  4  0
  5 23  4  0
  6 18  2  0
  7 15  4  0
  7 16  1  0
  7 27  4  0
  8 18  1  0
 10 18  1  0
 10 20  1  0
 11 15  4  0
 11 26  1  0
 13 22  4  0
 16 19  1  0
 16 20  2  0
 17 19  4  0
 17 21  4  0
 19 22  4  0
 20 28  1  0
 25 27  4  0
M  END
$$$$

 Created by Python create_sdf_string function

 28 30  0  0  0  0  0  0  0  0999 V2000
   11.4592   11.2893   18.7941 C   0  0  0  0  0  0  0  0  0  0  0  0
    3.4202    7.9009   20.3866 C   0  0  0  0  0  0  0  0  0  0  0  0
   13.5280   10.3522   19.3586 C   0  0  0  0  0  0  0  0  0  0  0  0
    9.6923    5.6468   22.7891 C   0  0  0  0  0  0  0  0  0  0  0  0
   11.7756   10.2554   20.8841 N   0  0  0  0  0  0  0  0  0  0  0  0
    8.9876   11.9370   19.8757 O   0  0  0  0  0  0  0  0  0  0  0  0
    6.0167    8.4478   21.1089 C   0  0  0  0  0  0  0  0  0  0  0  0
   11.0002   10.8890   20.0262 C   0  0  0  0  0  0  0  0  0  0  0  0
    2.1721    7.7393   20.0315 O   0  0  0  0  0  0  0  0  0  0  0  0
    9.1107   10.3880   21.3769 N   0  0  0  0  0  0  0  0  0  0  0  0
    3.9102    9.2008   20.3124 C   0  0  0  0  0  0  0  0  0  0  0  0
   12.7292   10.9960   18.4597 C   0  0  0  0  0  0  0  0  0  0  0  0
    9.3798    6.6793   23.6625 C   0  0  0  0  0  0  0  0  0  0  0  0
   14.7425   10.0739   19.0802 O   0  0  0  0  0  0  0  0  0  0  0  0
    5.1894    9.4673   20.7118 C   0  0  0  0  0  0  0  0  0  0  0  0
    7.3773    8.8224   21.4870 C   0  0  0  0  0  0  0  0  0  0  0  0
    8.4391    6.6439   21.0235 C   0  0  0  0  0  0  0  0  0  0  0  0
    9.6494   11.1353   20.4167 C   0  0  0  0  0  0  0  0  0  0  0  0
    8.1431    7.6829   21.9046 C   0  0  0  0  0  0  0  0  0  0  0  0
    7.7796   10.1314   21.5115 N   0  0  0  0  0  0  0  0  0  0  0  0
    9.2768    5.6183   21.4437 C   0  0  0  0  0  0  0  0  0  0  0  0
    8.6315    7.7322   23.1768 C   0  0  0  0  0  0  0  0  0  0  0  0
   13.0537    9.9821   20.5781 C   0  0  0  0  0  0  0  0  0  0  0  0
   10.3850    4.6575   23.2386 O   0  0  0  0  0  0  0  0  0  0  0  0
    4.2069    6.8450   20.7994 C   0  0  0  0  0  0  0  0  0  0  0  0
    3.0726   10.1043   19.8522 O   0  0  0  0  0  0  0  0  0  0  0  0
    5.5057    7.1196   21.1155 C   0  0  0  0  0  0  0  0  0  0  0  0
    7.0367   11.0229   21.9948 O   0  0  0  0  0  0  0  0  0  0  0  0
  1  8  4  0
  1 12  4  0
  2  9  1  0
  2 11  4  0
  2 25  4  0
  3 12  4  0
  3 14  1  0
  3 23  4  0
  4 13  4  0
  4 21  4  0
  4 24  1  0
  5  8  4  0
  5 23  4  0
  6 18  2  0
  7 15  4  0
  7 16  1  0
  7 27  4  0
  8 18  1  0
 10 18  1  0
 10 20  1  0
 11 15  4  0
 11 26  1  0
 13 22  4  0
 16 19  1  0
 16 20  2  0
 17 19  4  0
 17 21  4  0
 19 22  4  0
 20 28  1  0
 25 27  4  0
M  END
$$$$

 Created by Python create_sdf_string function

 28 30  0  0  0  0  0  0  0  0999 V2000
   11.4592   11.2893   18.7941 C   0  0  0  0  0  0  0  0  0  0  0  0
    3.4202    7.9009   20.3866 C   0  0  0  0  0  0  0  0  0  0  0  0
   13.5280   10.3522   19.3586 C   0  0  0  0  0  0  0  0  0  0  0  0
    9.6923    5.6468   22.7891 C   0  0  0  0  0  0  0  0  0  0  0  0
   11.7756   10.2554   20.8841 N   0  0  0  0  0  0  0  0  0  0  0  0
    8.9876   11.9370   19.8757 O   0  0  0  0  0  0  0  0  0  0  0  0
    6.0167    8.4478   21.1089 C   0  0  0  0  0  0  0  0  0  0  0  0
   11.0002   10.8890   20.0262 C   0  0  0  0  0  0  0  0  0  0  0  0
    2.1721    7.7393   20.0315 O   0  0  0  0  0  0  0  0  0  0  0  0
    9.1107   10.3880   21.3769 N   0  0  0  0  0  0  0  0  0  0  0  0
    3.9102    9.2008   20.3124 C   0  0  0  0  0  0  0  0  0  0  0  0
   12.7292   10.9960   18.4597 C   0  0  0  0  0  0  0  0  0  0  0  0
    9.3798    6.6793   23.6625 C   0  0  0  0  0  0  0  0  0  0  0  0
   14.7425   10.0739   19.0802 O   0  0  0  0  0  0  0  0  0  0  0  0
    5.1894    9.4673   20.7118 C   0  0  0  0  0  0  0  0  0  0  0  0
    7.3773    8.8224   21.4870 C   0  0  0  0  0  0  0  0  0  0  0  0
    8.4391    6.6439   21.0235 C   0  0  0  0  0  0  0  0  0  0  0  0
    9.6494   11.1353   20.4167 C   0  0  0  0  0  0  0  0  0  0  0  0
    8.1431    7.6829   21.9046 C   0  0  0  0  0  0  0  0  0  0  0  0
    7.7796   10.1314   21.5115 N   0  0  0  0  0  0  0  0  0  0  0  0
    9.2768    5.6183   21.4437 C   0  0  0  0  0  0  0  0  0  0  0  0
    8.6315    7.7322   23.1768 C   0  0  0  0  0  0  0  0  0  0  0  0
   13.0537    9.9821   20.5781 C   0  0  0  0  0  0  0  0  0  0  0  0
   10.3850    4.6575   23.2386 O   0  0  0  0  0  0  0  0  0  0  0  0
    4.2069    6.8450   20.7994 C   0  0  0  0  0  0  0  0  0  0  0  0
    3.0726   10.1043   19.8522 O   0  0  0  0  0  0  0  0  0  0  0  0
    5.5057    7.1196   21.1155 C   0  0  0  0  0  0  0  0  0  0  0  0
    7.0367   11.0229   21.9948 O   0  0  0  0  0  0  0  0  0  0  0  0
  1  8  4  0
  1 12  4  0
  2  9  1  0
  2 11  4  0
  2 25  4  0
  3 12  4  0
  3 14  1  0
  3 23  4  0
  4 13  4  0
  4 21  4  0
  4 24  1  0
  5  8  4  0
  5 23  4  0
  6 18  2  0
  7 15  4  0
  7 16  1  0
  7 27  4  0
  8 18  1  0
 10 18  1  0
 10 20  1  0
 11 15  4  0
 11 26  1  0
 13 22  4  0
 16 19  1  0
 16 20  2  0
 17 19  4  0
 17 21  4  0
 19 22  4  0
 20 28  1  0
 25 27  4  0
M  END
$$$$

 Created by Python create_sdf_string function

 28 30  0  0  0  0  0  0  0  0999 V2000
   11.4592   11.2893   18.7941 C   0  0  0  0  0  0  0  0  0  0  0  0
    3.4202    7.9009   20.3866 C   0  0  0  0  0  0  0  0  0  0  0  0
   13.5280   10.3522   19.3586 C   0  0  0  0  0  0  0  0  0  0  0  0
    9.6923    5.6468   22.7891 C   0  0  0  0  0  0  0  0  0  0  0  0
   11.7756   10.2554   20.8841 N   0  0  0  0  0  0  0  0  0  0  0  0
    8.9876   11.9370   19.8757 O   0  0  0  0  0  0  0  0  0  0  0  0
    6.0167    8.4478   21.1089 C   0  0  0  0  0  0  0  0  0  0  0  0
   11.0002   10.8890   20.0262 C   0  0  0  0  0  0  0  0  0  0  0  0
    2.1721    7.7393   20.0315 O   0  0  0  0  0  0  0  0  0  0  0  0
    9.1107   10.3880   21.3769 N   0  0  0  0  0  0  0  0  0  0  0  0
    3.9102    9.2008   20.3124 C   0  0  0  0  0  0  0  0  0  0  0  0
   12.7292   10.9960   18.4597 C   0  0  0  0  0  0  0  0  0  0  0  0
    9.3798    6.6793   23.6625 C   0  0  0  0  0  0  0  0  0  0  0  0
   14.7425   10.0739   19.0802 O   0  0  0  0  0  0  0  0  0  0  0  0
    5.1894    9.4673   20.7118 C   0  0  0  0  0  0  0  0  0  0  0  0
    7.3773    8.8224   21.4870 C   0  0  0  0  0  0  0  0  0  0  0  0
    8.4391    6.6439   21.0235 C   0  0  0  0  0  0  0  0  0  0  0  0
    9.6494   11.1353   20.4167 C   0  0  0  0  0  0  0  0  0  0  0  0
    8.1431    7.6829   21.9046 C   0  0  0  0  0  0  0  0  0  0  0  0
    7.7796   10.1314   21.5115 N   0  0  0  0  0  0  0  0  0  0  0  0
    9.2768    5.6183   21.4437 C   0  0  0  0  0  0  0  0  0  0  0  0
    8.6315    7.7322   23.1768 C   0  0  0  0  0  0  0  0  0  0  0  0
   13.0537    9.9821   20.5781 C   0  0  0  0  0  0  0  0  0  0  0  0
   10.3850    4.6575   23.2386 O   0  0  0  0  0  0  0  0  0  0  0  0
    4.2069    6.8450   20.7994 C   0  0  0  0  0  0  0  0  0  0  0  0
    3.0726   10.1043   19.8522 O   0  0  0  0  0  0  0  0  0  0  0  0
    5.5057    7.1196   21.1155 C   0  0  0  0  0  0  0  0  0  0  0  0
    7.0367   11.0229   21.9948 O   0  0  0  0  0  0  0  0  0  0  0  0
  1  8  4  0
  1 12  4  0
  2  9  1  0
  2 11  4  0
  2 25  4  0
  3 12  4  0
  3 14  1  0
  3 23  4  0
  4 13  4  0
  4 21  4  0
  4 24  1  0
  5  8  4  0
  5 23  4  0
  6 18  2  0
  7 15  4  0
  7 16  1  0
  7 27  4  0
  8 18  1  0
 10 18  1  0
 10 20  1  0
 11 15  4  0
 11 26  1  0
 13 22  4  0
 16 19  1  0
 16 20  2  0
 17 19  4  0
 17 21  4  0
 19 22  4  0
 20 28  1  0
 25 27  4  0
M  END
$$$$

 Created by Python create_sdf_string function

 28 30  0  0  0  0  0  0  0  0999 V2000
   11.4592   11.2893   18.7941 C   0  0  0  0  0  0  0  0  0  0  0  0
    3.4202    7.9009   20.3866 C   0  0  0  0  0  0  0  0  0  0  0  0
   13.5280   10.3522   19.3586 C   0  0  0  0  0  0  0  0  0  0  0  0
    9.6923    5.6468   22.7891 C   0  0  0  0  0  0  0  0  0  0  0  0
   11.7756   10.2554   20.8841 N   0  0  0  0  0  0  0  0  0  0  0  0
    8.9876   11.9370   19.8757 O   0  0  0  0  0  0  0  0  0  0  0  0
    6.0167    8.4478   21.1089 C   0  0  0  0  0  0  0  0  0  0  0  0
   11.0002   10.8890   20.0262 C   0  0  0  0  0  0  0  0  0  0  0  0
    2.1721    7.7393   20.0315 O   0  0  0  0  0  0  0  0  0  0  0  0
    9.1107   10.3880   21.3769 N   0  0  0  0  0  0  0  0  0  0  0  0
    3.9102    9.2008   20.3124 C   0  0  0  0  0  0  0  0  0  0  0  0
   12.7292   10.9960   18.4597 C   0  0  0  0  0  0  0  0  0  0  0  0
    9.3798    6.6793   23.6625 C   0  0  0  0  0  0  0  0  0  0  0  0
   14.7425   10.0739   19.0802 O   0  0  0  0  0  0  0  0  0  0  0  0
    5.1894    9.4673   20.7118 C   0  0  0  0  0  0  0  0  0  0  0  0
    7.3773    8.8224   21.4870 C   0  0  0  0  0  0  0  0  0  0  0  0
    8.4391    6.6439   21.0235 C   0  0  0  0  0  0  0  0  0  0  0  0
    9.6494   11.1353   20.4167 C   0  0  0  0  0  0  0  0  0  0  0  0
    8.1431    7.6829   21.9046 C   0  0  0  0  0  0  0  0  0  0  0  0
    7.7796   10.1314   21.5115 N   0  0  0  0  0  0  0  0  0  0  0  0
    9.2768    5.6183   21.4437 C   0  0  0  0  0  0  0  0  0  0  0  0
    8.6315    7.7322   23.1768 C   0  0  0  0  0  0  0  0  0  0  0  0
   13.0537    9.9821   20.5781 C   0  0  0  0  0  0  0  0  0  0  0  0
   10.3850    4.6575   23.2386 O   0  0  0  0  0  0  0  0  0  0  0  0
    4.2069    6.8450   20.7994 C   0  0  0  0  0  0  0  0  0  0  0  0
    3.0726   10.1043   19.8522 O   0  0  0  0  0  0  0  0  0  0  0  0
    5.5057    7.1196   21.1155 C   0  0  0  0  0  0  0  0  0  0  0  0
    7.0367   11.0229   21.9948 O   0  0  0  0  0  0  0  0  0  0  0  0
  1  8  4  0
  1 12  4  0
  2  9  1  0
  2 11  4  0
  2 25  4  0
  3 12  4  0
  3 14  1  0
  3 23  4  0
  4 13  4  0
  4 21  4  0
  4 24  1  0
  5  8  4  0
  5 23  4  0
  6 18  2  0
  7 15  4  0
  7 16  1  0
  7 27  4  0
  8 18  1  0
 10 18  1  0
 10 20  1  0
 11 15  4  0
 11 26  1  0
 13 22  4  0
 16 19  1  0
 16 20  2  0
 17 19  4  0
 17 21  4  0
 19 22  4  0
 20 28  1  0
 25 27  4  0
M  END
$$$$

 Created by Python create_sdf_string function

 28 30  0  0  0  0  0  0  0  0999 V2000
   11.4592   11.2893   18.7941 C   0  0  0  0  0  0  0  0  0  0  0  0
    3.4202    7.9009   20.3866 C   0  0  0  0  0  0  0  0  0  0  0  0
   13.5280   10.3522   19.3586 C   0  0  0  0  0  0  0  0  0  0  0  0
    9.6923    5.6468   22.7891 C   0  0  0  0  0  0  0  0  0  0  0  0
   11.7756   10.2554   20.8841 N   0  0  0  0  0  0  0  0  0  0  0  0
    8.9876   11.9370   19.8757 O   0  0  0  0  0  0  0  0  0  0  0  0
    6.0167    8.4478   21.1089 C   0  0  0  0  0  0  0  0  0  0  0  0
   11.0002   10.8890   20.0262 C   0  0  0  0  0  0  0  0  0  0  0  0
    2.1721    7.7393   20.0315 O   0  0  0  0  0  0  0  0  0  0  0  0
    9.1107   10.3880   21.3769 N   0  0  0  0  0  0  0  0  0  0  0  0
    3.9102    9.2008   20.3124 C   0  0  0  0  0  0  0  0  0  0  0  0
   12.7292   10.9960   18.4597 C   0  0  0  0  0  0  0  0  0  0  0  0
    9.3798    6.6793   23.6625 C   0  0  0  0  0  0  0  0  0  0  0  0
   14.7425   10.0739   19.0802 O   0  0  0  0  0  0  0  0  0  0  0  0
    5.1894    9.4673   20.7118 C   0  0  0  0  0  0  0  0  0  0  0  0
    7.3773    8.8224   21.4870 C   0  0  0  0  0  0  0  0  0  0  0  0
    8.4391    6.6439   21.0235 C   0  0  0  0  0  0  0  0  0  0  0  0
    9.6494   11.1353   20.4167 C   0  0  0  0  0  0  0  0  0  0  0  0
    8.1431    7.6829   21.9046 C   0  0  0  0  0  0  0  0  0  0  0  0
    7.7796   10.1314   21.5115 N   0  0  0  0  0  0  0  0  0  0  0  0
    9.2768    5.6183   21.4437 C   0  0  0  0  0  0  0  0  0  0  0  0
    8.6315    7.7322   23.1768 C   0  0  0  0  0  0  0  0  0  0  0  0
   13.0537    9.9821   20.5781 C   0  0  0  0  0  0  0  0  0  0  0  0
   10.3850    4.6575   23.2386 O   0  0  0  0  0  0  0  0  0  0  0  0
    4.2069    6.8450   20.7994 C   0  0  0  0  0  0  0  0  0  0  0  0
    3.0726   10.1043   19.8522 O   0  0  0  0  0  0  0  0  0  0  0  0
    5.5057    7.1196   21.1155 C   0  0  0  0  0  0  0  0  0  0  0  0
    7.0367   11.0229   21.9948 O   0  0  0  0  0  0  0  0  0  0  0  0
  1  8  4  0
  1 12  4  0
  2  9  1  0
  2 11  4  0
  2 25  4  0
  3 12  4  0
  3 14  1  0
  3 23  4  0
  4 13  4  0
  4 21  4  0
  4 24  1  0
  5  8  4  0
  5 23  4  0
  6 18  2  0
  7 15  4  0
  7 16  1  0
  7 27  4  0
  8 18  1  0
 10 18  1  0
 10 20  1  0
 11 15  4  0
 11 26  1  0
 13 22  4  0
 16 19  1  0
 16 20  2  0
 17 19  4  0
 17 21  4  0
 19 22  4  0
 20 28  1  0
 25 27  4  0
M  END
$$$$

 Created by Python create_sdf_string function

 28 30  0  0  0  0  0  0  0  0999 V2000
   11.4592   11.2893   18.7941 C   0  0  0  0  0  0  0  0  0  0  0  0
    3.4202    7.9009   20.3866 C   0  0  0  0  0  0  0  0  0  0  0  0
   13.5280   10.3522   19.3586 C   0  0  0  0  0  0  0  0  0  0  0  0
    9.6923    5.6468   22.7891 C   0  0  0  0  0  0  0  0  0  0  0  0
   11.7756   10.2554   20.8841 N   0  0  0  0  0  0  0  0  0  0  0  0
    8.9876   11.9370   19.8757 O   0  0  0  0  0  0  0  0  0  0  0  0
    6.0167    8.4478   21.1089 C   0  0  0  0  0  0  0  0  0  0  0  0
   11.0002   10.8890   20.0262 C   0  0  0  0  0  0  0  0  0  0  0  0
    2.1721    7.7393   20.0315 O   0  0  0  0  0  0  0  0  0  0  0  0
    9.1107   10.3880   21.3769 N   0  0  0  0  0  0  0  0  0  0  0  0
    3.9102    9.2008   20.3124 C   0  0  0  0  0  0  0  0  0  0  0  0
   12.7292   10.9960   18.4597 C   0  0  0  0  0  0  0  0  0  0  0  0
    9.3798    6.6793   23.6625 C   0  0  0  0  0  0  0  0  0  0  0  0
   14.7425   10.0739   19.0802 O   0  0  0  0  0  0  0  0  0  0  0  0
    5.1894    9.4673   20.7118 C   0  0  0  0  0  0  0  0  0  0  0  0
    7.3773    8.8224   21.4870 C   0  0  0  0  0  0  0  0  0  0  0  0
    8.4391    6.6439   21.0235 C   0  0  0  0  0  0  0  0  0  0  0  0
    9.6494   11.1353   20.4167 C   0  0  0  0  0  0  0  0  0  0  0  0
    8.1431    7.6829   21.9046 C   0  0  0  0  0  0  0  0  0  0  0  0
    7.7796   10.1314   21.5115 N   0  0  0  0  0  0  0  0  0  0  0  0
    9.2768    5.6183   21.4437 C   0  0  0  0  0  0  0  0  0  0  0  0
    8.6315    7.7322   23.1768 C   0  0  0  0  0  0  0  0  0  0  0  0
   13.0537    9.9821   20.5781 C   0  0  0  0  0  0  0  0  0  0  0  0
   10.3850    4.6575   23.2386 O   0  0  0  0  0  0  0  0  0  0  0  0
    4.2069    6.8450   20.7994 C   0  0  0  0  0  0  0  0  0  0  0  0
    3.0726   10.1043   19.8522 O   0  0  0  0  0  0  0  0  0  0  0  0
    5.5057    7.1196   21.1155 C   0  0  0  0  0  0  0  0  0  0  0  0
    7.0367   11.0229   21.9948 O   0  0  0  0  0  0  0  0  0  0  0  0
  1  8  4  0
  1 12  4  0
  2  9  1  0
  2 11  4  0
  2 25  4  0
  3 12  4  0
  3 14  1  0
  3 23  4  0
  4 13  4  0
  4 21  4  0
  4 24  1  0
  5  8  4  0
  5 23  4  0
  6 18  2  0
  7 15  4  0
  7 16  1  0
  7 27  4  0
  8 18  1  0
 10 18  1  0
 10 20  1  0
 11 15  4  0
 11 26  1  0
 13 22  4  0
 16 19  1  0
 16 20  2  0
 17 19  4  0
 17 21  4  0
 19 22  4  0
 20 28  1  0
 25 27  4  0
M  END
$$$$

 Created by Python create_sdf_string function

 28 30  0  0  0  0  0  0  0  0999 V2000
   11.4592   11.2893   18.7941 C   0  0  0  0  0  0  0  0  0  0  0  0
    3.4202    7.9009   20.3866 C   0  0  0  0  0  0  0  0  0  0  0  0
   13.5280   10.3522   19.3586 C   0  0  0  0  0  0  0  0  0  0  0  0
    9.6923    5.6468   22.7891 C   0  0  0  0  0  0  0  0  0  0  0  0
   11.7756   10.2554   20.8841 N   0  0  0  0  0  0  0  0  0  0  0  0
    8.9876   11.9370   19.8757 O   0  0  0  0  0  0  0  0  0  0  0  0
    6.0167    8.4478   21.1089 C   0  0  0  0  0  0  0  0  0  0  0  0
   11.0002   10.8890   20.0262 C   0  0  0  0  0  0  0  0  0  0  0  0
    2.1721    7.7393   20.0315 O   0  0  0  0  0  0  0  0  0  0  0  0
    9.1107   10.3880   21.3769 N   0  0  0  0  0  0  0  0  0  0  0  0
    3.9102    9.2008   20.3124 C   0  0  0  0  0  0  0  0  0  0  0  0
   12.7292   10.9960   18.4597 C   0  0  0  0  0  0  0  0  0  0  0  0
    9.3798    6.6793   23.6625 C   0  0  0  0  0  0  0  0  0  0  0  0
   14.7425   10.0739   19.0802 O   0  0  0  0  0  0  0  0  0  0  0  0
    5.1894    9.4673   20.7118 C   0  0  0  0  0  0  0  0  0  0  0  0
    7.3773    8.8224   21.4870 C   0  0  0  0  0  0  0  0  0  0  0  0
    8.4391    6.6439   21.0235 C   0  0  0  0  0  0  0  0  0  0  0  0
    9.6494   11.1353   20.4167 C   0  0  0  0  0  0  0  0  0  0  0  0
    8.1431    7.6829   21.9046 C   0  0  0  0  0  0  0  0  0  0  0  0
    7.7796   10.1314   21.5115 N   0  0  0  0  0  0  0  0  0  0  0  0
    9.2768    5.6183   21.4437 C   0  0  0  0  0  0  0  0  0  0  0  0
    8.6315    7.7322   23.1768 C   0  0  0  0  0  0  0  0  0  0  0  0
   13.0537    9.9821   20.5781 C   0  0  0  0  0  0  0  0  0  0  0  0
   10.3850    4.6575   23.2386 O   0  0  0  0  0  0  0  0  0  0  0  0
    4.2069    6.8450   20.7994 C   0  0  0  0  0  0  0  0  0  0  0  0
    3.0726   10.1043   19.8522 O   0  0  0  0  0  0  0  0  0  0  0  0
    5.5057    7.1196   21.1155 C   0  0  0  0  0  0  0  0  0  0  0  0
    7.0367   11.0229   21.9948 O   0  0  0  0  0  0  0  0  0  0  0  0
  1  8  4  0
  1 12  4  0
  2  9  1  0
  2 11  4  0
  2 25  4  0
  3 12  4  0
  3 14  1  0
  3 23  4  0
  4 13  4  0
  4 21  4  0
  4 24  1  0
  5  8  4  0
  5 23  4  0
  6 18  2  0
  7 15  4  0
  7 16  1  0
  7 27  4  0
  8 18  1  0
 10 18  1  0
 10 20  1  0
 11 15  4  0
 11 26  1  0
 13 22  4  0
 16 19  1  0
 16 20  2  0
 17 19  4  0
 17 21  4  0
 19 22  4  0
 20 28  1  0
 25 27  4  0
M  END
$$$$

 Created by Python create_sdf_string function

 28 30  0  0  0  0  0  0  0  0999 V2000
   11.4592   11.2893   18.7941 C   0  0  0  0  0  0  0  0  0  0  0  0
    3.4202    7.9009   20.3866 C   0  0  0  0  0  0  0  0  0  0  0  0
   13.5280   10.3522   19.3586 C   0  0  0  0  0  0  0  0  0  0  0  0
    9.6923    5.6468   22.7891 C   0  0  0  0  0  0  0  0  0  0  0  0
   11.7756   10.2554   20.8841 N   0  0  0  0  0  0  0  0  0  0  0  0
    8.9876   11.9370   19.8757 O   0  0  0  0  0  0  0  0  0  0  0  0
    6.0167    8.4478   21.1089 C   0  0  0  0  0  0  0  0  0  0  0  0
   11.0002   10.8890   20.0262 C   0  0  0  0  0  0  0  0  0  0  0  0
    2.1721    7.7393   20.0315 O   0  0  0  0  0  0  0  0  0  0  0  0
    9.1107   10.3880   21.3769 N   0  0  0  0  0  0  0  0  0  0  0  0
    3.9102    9.2008   20.3124 C   0  0  0  0  0  0  0  0  0  0  0  0
   12.7292   10.9960   18.4597 C   0  0  0  0  0  0  0  0  0  0  0  0
    9.3798    6.6793   23.6625 C   0  0  0  0  0  0  0  0  0  0  0  0
   14.7425   10.0739   19.0802 O   0  0  0  0  0  0  0  0  0  0  0  0
    5.1894    9.4673   20.7118 C   0  0  0  0  0  0  0  0  0  0  0  0
    7.3773    8.8224   21.4870 C   0  0  0  0  0  0  0  0  0  0  0  0
    8.4391    6.6439   21.0235 C   0  0  0  0  0  0  0  0  0  0  0  0
    9.6494   11.1353   20.4167 C   0  0  0  0  0  0  0  0  0  0  0  0
    8.1431    7.6829   21.9046 C   0  0  0  0  0  0  0  0  0  0  0  0
    7.7796   10.1314   21.5115 N   0  0  0  0  0  0  0  0  0  0  0  0
    9.2768    5.6183   21.4437 C   0  0  0  0  0  0  0  0  0  0  0  0
    8.6315    7.7322   23.1768 C   0  0  0  0  0  0  0  0  0  0  0  0
   13.0537    9.9821   20.5781 C   0  0  0  0  0  0  0  0  0  0  0  0
   10.3850    4.6575   23.2386 O   0  0  0  0  0  0  0  0  0  0  0  0
    4.2069    6.8450   20.7994 C   0  0  0  0  0  0  0  0  0  0  0  0
    3.0726   10.1043   19.8522 O   0  0  0  0  0  0  0  0  0  0  0  0
    5.5057    7.1196   21.1155 C   0  0  0  0  0  0  0  0  0  0  0  0
    7.0367   11.0229   21.9948 O   0  0  0  0  0  0  0  0  0  0  0  0
  1  8  4  0
  1 12  4  0
  2  9  1  0
  2 11  4  0
  2 25  4  0
  3 12  4  0
  3 14  1  0
  3 23  4  0
  4 13  4  0
  4 21  4  0
  4 24  1  0
  5  8  4  0
  5 23  4  0
  6 18  2  0
  7 15  4  0
  7 16  1  0
  7 27  4  0
  8 18  1  0
 10 18  1  0
 10 20  1  0
 11 15  4  0
 11 26  1  0
 13 22  4  0
 16 19  1  0
 16 20  2  0
 17 19  4  0
 17 21  4  0
 19 22  4  0
 20 28  1  0
 25 27  4  0
M  END
$$$$

 Created by Python create_sdf_string function

 28 30  0  0  0  0  0  0  0  0999 V2000
   11.4592   11.2893   18.7941 C   0  0  0  0  0  0  0  0  0  0  0  0
    3.4202    7.9009   20.3866 C   0  0  0  0  0  0  0  0  0  0  0  0
   13.5280   10.3522   19.3586 C   0  0  0  0  0  0  0  0  0  0  0  0
    9.6923    5.6468   22.7891 C   0  0  0  0  0  0  0  0  0  0  0  0
   11.7756   10.2554   20.8841 N   0  0  0  0  0  0  0  0  0  0  0  0
    8.9876   11.9370   19.8757 O   0  0  0  0  0  0  0  0  0  0  0  0
    6.0167    8.4478   21.1089 C   0  0  0  0  0  0  0  0  0  0  0  0
   11.0002   10.8890   20.0262 C   0  0  0  0  0  0  0  0  0  0  0  0
    2.1721    7.7393   20.0315 O   0  0  0  0  0  0  0  0  0  0  0  0
    9.1107   10.3880   21.3769 N   0  0  0  0  0  0  0  0  0  0  0  0
    3.9102    9.2008   20.3124 C   0  0  0  0  0  0  0  0  0  0  0  0
   12.7292   10.9960   18.4597 C   0  0  0  0  0  0  0  0  0  0  0  0
    9.3798    6.6793   23.6625 C   0  0  0  0  0  0  0  0  0  0  0  0
   14.7425   10.0739   19.0802 O   0  0  0  0  0  0  0  0  0  0  0  0
    5.1894    9.4673   20.7118 C   0  0  0  0  0  0  0  0  0  0  0  0
    7.3773    8.8224   21.4870 C   0  0  0  0  0  0  0  0  0  0  0  0
    8.4391    6.6439   21.0235 C   0  0  0  0  0  0  0  0  0  0  0  0
    9.6494   11.1353   20.4167 C   0  0  0  0  0  0  0  0  0  0  0  0
    8.1431    7.6829   21.9046 C   0  0  0  0  0  0  0  0  0  0  0  0
    7.7796   10.1314   21.5115 N   0  0  0  0  0  0  0  0  0  0  0  0
    9.2768    5.6183   21.4437 C   0  0  0  0  0  0  0  0  0  0  0  0
    8.6315    7.7322   23.1768 C   0  0  0  0  0  0  0  0  0  0  0  0
   13.0537    9.9821   20.5781 C   0  0  0  0  0  0  0  0  0  0  0  0
   10.3850    4.6575   23.2386 O   0  0  0  0  0  0  0  0  0  0  0  0
    4.2069    6.8450   20.7994 C   0  0  0  0  0  0  0  0  0  0  0  0
    3.0726   10.1043   19.8522 O   0  0  0  0  0  0  0  0  0  0  0  0
    5.5057    7.1196   21.1155 C   0  0  0  0  0  0  0  0  0  0  0  0
    7.0367   11.0229   21.9948 O   0  0  0  0  0  0  0  0  0  0  0  0
  1  8  4  0
  1 12  4  0
  2  9  1  0
  2 11  4  0
  2 25  4  0
  3 12  4  0
  3 14  1  0
  3 23  4  0
  4 13  4  0
  4 21  4  0
  4 24  1  0
  5  8  4  0
  5 23  4  0
  6 18  2  0
  7 15  4  0
  7 16  1  0
  7 27  4  0
  8 18  1  0
 10 18  1  0
 10 20  1  0
 11 15  4  0
 11 26  1  0
 13 22  4  0
 16 19  1  0
 16 20  2  0
 17 19  4  0
 17 21  4  0
 19 22  4  0
 20 28  1  0
 25 27  4  0
M  END
$$$$

 Created by Python create_sdf_string function

 28 30  0  0  0  0  0  0  0  0999 V2000
   11.4592   11.2893   18.7941 C   0  0  0  0  0  0  0  0  0  0  0  0
    3.4202    7.9009   20.3866 C   0  0  0  0  0  0  0  0  0  0  0  0
   13.5280   10.3522   19.3586 C   0  0  0  0  0  0  0  0  0  0  0  0
    9.6923    5.6468   22.7891 C   0  0  0  0  0  0  0  0  0  0  0  0
   11.7756   10.2554   20.8841 N   0  0  0  0  0  0  0  0  0  0  0  0
    8.9876   11.9370   19.8757 O   0  0  0  0  0  0  0  0  0  0  0  0
    6.0167    8.4478   21.1089 C   0  0  0  0  0  0  0  0  0  0  0  0
   11.0002   10.8890   20.0262 C   0  0  0  0  0  0  0  0  0  0  0  0
    2.1721    7.7393   20.0315 O   0  0  0  0  0  0  0  0  0  0  0  0
    9.1107   10.3880   21.3769 N   0  0  0  0  0  0  0  0  0  0  0  0
    3.9102    9.2008   20.3124 C   0  0  0  0  0  0  0  0  0  0  0  0
   12.7292   10.9960   18.4597 C   0  0  0  0  0  0  0  0  0  0  0  0
    9.3798    6.6793   23.6625 C   0  0  0  0  0  0  0  0  0  0  0  0
   14.7425   10.0739   19.0802 O   0  0  0  0  0  0  0  0  0  0  0  0
    5.1894    9.4673   20.7118 C   0  0  0  0  0  0  0  0  0  0  0  0
    7.3773    8.8224   21.4870 C   0  0  0  0  0  0  0  0  0  0  0  0
    8.4391    6.6439   21.0235 C   0  0  0  0  0  0  0  0  0  0  0  0
    9.6494   11.1353   20.4167 C   0  0  0  0  0  0  0  0  0  0  0  0
    8.1431    7.6829   21.9046 C   0  0  0  0  0  0  0  0  0  0  0  0
    7.7796   10.1314   21.5115 N   0  0  0  0  0  0  0  0  0  0  0  0
    9.2768    5.6183   21.4437 C   0  0  0  0  0  0  0  0  0  0  0  0
    8.6315    7.7322   23.1768 C   0  0  0  0  0  0  0  0  0  0  0  0
   13.0537    9.9821   20.5781 C   0  0  0  0  0  0  0  0  0  0  0  0
   10.3850    4.6575   23.2386 O   0  0  0  0  0  0  0  0  0  0  0  0
    4.2069    6.8450   20.7994 C   0  0  0  0  0  0  0  0  0  0  0  0
    3.0726   10.1043   19.8522 O   0  0  0  0  0  0  0  0  0  0  0  0
    5.5057    7.1196   21.1155 C   0  0  0  0  0  0  0  0  0  0  0  0
    7.0367   11.0229   21.9948 O   0  0  0  0  0  0  0  0  0  0  0  0
  1  8  4  0
  1 12  4  0
  2  9  1  0
  2 11  4  0
  2 25  4  0
  3 12  4  0
  3 14  1  0
  3 23  4  0
  4 13  4  0
  4 21  4  0
  4 24  1  0
  5  8  4  0
  5 23  4  0
  6 18  2  0
  7 15  4  0
  7 16  1  0
  7 27  4  0
  8 18  1  0
 10 18  1  0
 10 20  1  0
 11 15  4  0
 11 26  1  0
 13 22  4  0
 16 19  1  0
 16 20  2  0
 17 19  4  0
 17 21  4  0
 19 22  4  0
 20 28  1  0
 25 27  4  0
M  END
$$$$

 Created by Python create_sdf_string function

 28 30  0  0  0  0  0  0  0  0999 V2000
   11.4592   11.2893   18.7941 C   0  0  0  0  0  0  0  0  0  0  0  0
    3.4202    7.9009   20.3866 C   0  0  0  0  0  0  0  0  0  0  0  0
   13.5280   10.3522   19.3586 C   0  0  0  0  0  0  0  0  0  0  0  0
    9.6923    5.6468   22.7891 C   0  0  0  0  0  0  0  0  0  0  0  0
   11.7756   10.2554   20.8841 N   0  0  0  0  0  0  0  0  0  0  0  0
    8.9876   11.9370   19.8757 O   0  0  0  0  0  0  0  0  0  0  0  0
    6.0167    8.4478   21.1089 C   0  0  0  0  0  0  0  0  0  0  0  0
   11.0002   10.8890   20.0262 C   0  0  0  0  0  0  0  0  0  0  0  0
    2.1721    7.7393   20.0315 O   0  0  0  0  0  0  0  0  0  0  0  0
    9.1107   10.3880   21.3769 N   0  0  0  0  0  0  0  0  0  0  0  0
    3.9102    9.2008   20.3124 C   0  0  0  0  0  0  0  0  0  0  0  0
   12.7292   10.9960   18.4597 C   0  0  0  0  0  0  0  0  0  0  0  0
    9.3798    6.6793   23.6625 C   0  0  0  0  0  0  0  0  0  0  0  0
   14.7425   10.0739   19.0802 O   0  0  0  0  0  0  0  0  0  0  0  0
    5.1894    9.4673   20.7118 C   0  0  0  0  0  0  0  0  0  0  0  0
    7.3773    8.8224   21.4870 C   0  0  0  0  0  0  0  0  0  0  0  0
    8.4391    6.6439   21.0235 C   0  0  0  0  0  0  0  0  0  0  0  0
    9.6494   11.1353   20.4167 C   0  0  0  0  0  0  0  0  0  0  0  0
    8.1431    7.6829   21.9046 C   0  0  0  0  0  0  0  0  0  0  0  0
    7.7796   10.1314   21.5115 N   0  0  0  0  0  0  0  0  0  0  0  0
    9.2768    5.6183   21.4437 C   0  0  0  0  0  0  0  0  0  0  0  0
    8.6315    7.7322   23.1768 C   0  0  0  0  0  0  0  0  0  0  0  0
   13.0537    9.9821   20.5781 C   0  0  0  0  0  0  0  0  0  0  0  0
   10.3850    4.6575   23.2386 O   0  0  0  0  0  0  0  0  0  0  0  0
    4.2069    6.8450   20.7994 C   0  0  0  0  0  0  0  0  0  0  0  0
    3.0726   10.1043   19.8522 O   0  0  0  0  0  0  0  0  0  0  0  0
    5.5057    7.1196   21.1155 C   0  0  0  0  0  0  0  0  0  0  0  0
    7.0367   11.0229   21.9948 O   0  0  0  0  0  0  0  0  0  0  0  0
  1  8  4  0
  1 12  4  0
  2  9  1  0
  2 11  4  0
  2 25  4  0
  3 12  4  0
  3 14  1  0
  3 23  4  0
  4 13  4  0
  4 21  4  0
  4 24  1  0
  5  8  4  0
  5 23  4  0
  6 18  2  0
  7 15  4  0
  7 16  1  0
  7 27  4  0
  8 18  1  0
 10 18  1  0
 10 20  1  0
 11 15  4  0
 11 26  1  0
 13 22  4  0
 16 19  1  0
 16 20  2  0
 17 19  4  0
 17 21  4  0
 19 22  4  0
 20 28  1  0
 25 27  4  0
M  END
$$$$

 Created by Python create_sdf_string function

 28 30  0  0  0  0  0  0  0  0999 V2000
   11.4592   11.2893   18.7941 C   0  0  0  0  0  0  0  0  0  0  0  0
    3.4202    7.9009   20.3866 C   0  0  0  0  0  0  0  0  0  0  0  0
   13.5280   10.3522   19.3586 C   0  0  0  0  0  0  0  0  0  0  0  0
    9.6923    5.6468   22.7891 C   0  0  0  0  0  0  0  0  0  0  0  0
   11.7756   10.2554   20.8841 N   0  0  0  0  0  0  0  0  0  0  0  0
    8.9876   11.9370   19.8757 O   0  0  0  0  0  0  0  0  0  0  0  0
    6.0167    8.4478   21.1089 C   0  0  0  0  0  0  0  0  0  0  0  0
   11.0002   10.8890   20.0262 C   0  0  0  0  0  0  0  0  0  0  0  0
    2.1721    7.7393   20.0315 O   0  0  0  0  0  0  0  0  0  0  0  0
    9.1107   10.3880   21.3769 N   0  0  0  0  0  0  0  0  0  0  0  0
    3.9102    9.2008   20.3124 C   0  0  0  0  0  0  0  0  0  0  0  0
   12.7292   10.9960   18.4597 C   0  0  0  0  0  0  0  0  0  0  0  0
    9.3798    6.6793   23.6625 C   0  0  0  0  0  0  0  0  0  0  0  0
   14.7425   10.0739   19.0802 O   0  0  0  0  0  0  0  0  0  0  0  0
    5.1894    9.4673   20.7118 C   0  0  0  0  0  0  0  0  0  0  0  0
    7.3773    8.8224   21.4870 C   0  0  0  0  0  0  0  0  0  0  0  0
    8.4391    6.6439   21.0235 C   0  0  0  0  0  0  0  0  0  0  0  0
    9.6494   11.1353   20.4167 C   0  0  0  0  0  0  0  0  0  0  0  0
    8.1431    7.6829   21.9046 C   0  0  0  0  0  0  0  0  0  0  0  0
    7.7796   10.1314   21.5115 N   0  0  0  0  0  0  0  0  0  0  0  0
    9.2768    5.6183   21.4437 C   0  0  0  0  0  0  0  0  0  0  0  0
    8.6315    7.7322   23.1768 C   0  0  0  0  0  0  0  0  0  0  0  0
   13.0537    9.9821   20.5781 C   0  0  0  0  0  0  0  0  0  0  0  0
   10.3850    4.6575   23.2386 O   0  0  0  0  0  0  0  0  0  0  0  0
    4.2069    6.8450   20.7994 C   0  0  0  0  0  0  0  0  0  0  0  0
    3.0726   10.1043   19.8522 O   0  0  0  0  0  0  0  0  0  0  0  0
    5.5057    7.1196   21.1155 C   0  0  0  0  0  0  0  0  0  0  0  0
    7.0367   11.0229   21.9948 O   0  0  0  0  0  0  0  0  0  0  0  0
  1  8  4  0
  1 12  4  0
  2  9  1  0
  2 11  4  0
  2 25  4  0
  3 12  4  0
  3 14  1  0
  3 23  4  0
  4 13  4  0
  4 21  4  0
  4 24  1  0
  5  8  4  0
  5 23  4  0
  6 18  2  0
  7 15  4  0
  7 16  1  0
  7 27  4  0
  8 18  1  0
 10 18  1  0
 10 20  1  0
 11 15  4  0
 11 26  1  0
 13 22  4  0
 16 19  1  0
 16 20  2  0
 17 19  4  0
 17 21  4  0
 19 22  4  0
 20 28  1  0
 25 27  4  0
M  END
$$$$

 Created by Python create_sdf_string function

 28 30  0  0  0  0  0  0  0  0999 V2000
   11.4592   11.2893   18.7941 C   0  0  0  0  0  0  0  0  0  0  0  0
    3.4202    7.9009   20.3866 C   0  0  0  0  0  0  0  0  0  0  0  0
   13.5280   10.3522   19.3586 C   0  0  0  0  0  0  0  0  0  0  0  0
    9.6923    5.6468   22.7891 C   0  0  0  0  0  0  0  0  0  0  0  0
   11.7756   10.2554   20.8841 N   0  0  0  0  0  0  0  0  0  0  0  0
    8.9876   11.9370   19.8757 O   0  0  0  0  0  0  0  0  0  0  0  0
    6.0167    8.4478   21.1089 C   0  0  0  0  0  0  0  0  0  0  0  0
   11.0002   10.8890   20.0262 C   0  0  0  0  0  0  0  0  0  0  0  0
    2.1721    7.7393   20.0315 O   0  0  0  0  0  0  0  0  0  0  0  0
    9.1107   10.3880   21.3769 N   0  0  0  0  0  0  0  0  0  0  0  0
    3.9102    9.2008   20.3124 C   0  0  0  0  0  0  0  0  0  0  0  0
   12.7292   10.9960   18.4597 C   0  0  0  0  0  0  0  0  0  0  0  0
    9.3798    6.6793   23.6625 C   0  0  0  0  0  0  0  0  0  0  0  0
   14.7425   10.0739   19.0802 O   0  0  0  0  0  0  0  0  0  0  0  0
    5.1894    9.4673   20.7118 C   0  0  0  0  0  0  0  0  0  0  0  0
    7.3773    8.8224   21.4870 C   0  0  0  0  0  0  0  0  0  0  0  0
    8.4391    6.6439   21.0235 C   0  0  0  0  0  0  0  0  0  0  0  0
    9.6494   11.1353   20.4167 C   0  0  0  0  0  0  0  0  0  0  0  0
    8.1431    7.6829   21.9046 C   0  0  0  0  0  0  0  0  0  0  0  0
    7.7796   10.1314   21.5115 N   0  0  0  0  0  0  0  0  0  0  0  0
    9.2768    5.6183   21.4437 C   0  0  0  0  0  0  0  0  0  0  0  0
    8.6315    7.7322   23.1768 C   0  0  0  0  0  0  0  0  0  0  0  0
   13.0537    9.9821   20.5781 C   0  0  0  0  0  0  0  0  0  0  0  0
   10.3850    4.6575   23.2386 O   0  0  0  0  0  0  0  0  0  0  0  0
    4.2069    6.8450   20.7994 C   0  0  0  0  0  0  0  0  0  0  0  0
    3.0726   10.1043   19.8522 O   0  0  0  0  0  0  0  0  0  0  0  0
    5.5057    7.1196   21.1155 C   0  0  0  0  0  0  0  0  0  0  0  0
    7.0367   11.0229   21.9948 O   0  0  0  0  0  0  0  0  0  0  0  0
  1  8  4  0
  1 12  4  0
  2  9  1  0
  2 11  4  0
  2 25  4  0
  3 12  4  0
  3 14  1  0
  3 23  4  0
  4 13  4  0
  4 21  4  0
  4 24  1  0
  5  8  4  0
  5 23  4  0
  6 18  2  0
  7 15  4  0
  7 16  1  0
  7 27  4  0
  8 18  1  0
 10 18  1  0
 10 20  1  0
 11 15  4  0
 11 26  1  0
 13 22  4  0
 16 19  1  0
 16 20  2  0
 17 19  4  0
 17 21  4  0
 19 22  4  0
 20 28  1  0
 25 27  4  0
M  END
$$$$

 Created by Python create_sdf_string function

 28 30  0  0  0  0  0  0  0  0999 V2000
   11.4592   11.2893   18.7941 C   0  0  0  0  0  0  0  0  0  0  0  0
    3.4202    7.9009   20.3866 C   0  0  0  0  0  0  0  0  0  0  0  0
   13.5280   10.3522   19.3586 C   0  0  0  0  0  0  0  0  0  0  0  0
    9.6923    5.6468   22.7891 C   0  0  0  0  0  0  0  0  0  0  0  0
   11.7756   10.2554   20.8841 N   0  0  0  0  0  0  0  0  0  0  0  0
    8.9876   11.9370   19.8757 O   0  0  0  0  0  0  0  0  0  0  0  0
    6.0167    8.4478   21.1089 C   0  0  0  0  0  0  0  0  0  0  0  0
   11.0002   10.8890   20.0262 C   0  0  0  0  0  0  0  0  0  0  0  0
    2.1721    7.7393   20.0315 O   0  0  0  0  0  0  0  0  0  0  0  0
    9.1107   10.3880   21.3769 N   0  0  0  0  0  0  0  0  0  0  0  0
    3.9102    9.2008   20.3124 C   0  0  0  0  0  0  0  0  0  0  0  0
   12.7292   10.9960   18.4597 C   0  0  0  0  0  0  0  0  0  0  0  0
    9.3798    6.6793   23.6625 C   0  0  0  0  0  0  0  0  0  0  0  0
   14.7425   10.0739   19.0802 O   0  0  0  0  0  0  0  0  0  0  0  0
    5.1894    9.4673   20.7118 C   0  0  0  0  0  0  0  0  0  0  0  0
    7.3773    8.8224   21.4870 C   0  0  0  0  0  0  0  0  0  0  0  0
    8.4391    6.6439   21.0235 C   0  0  0  0  0  0  0  0  0  0  0  0
    9.6494   11.1353   20.4167 C   0  0  0  0  0  0  0  0  0  0  0  0
    8.1431    7.6829   21.9046 C   0  0  0  0  0  0  0  0  0  0  0  0
    7.7796   10.1314   21.5115 N   0  0  0  0  0  0  0  0  0  0  0  0
    9.2768    5.6183   21.4437 C   0  0  0  0  0  0  0  0  0  0  0  0
    8.6315    7.7322   23.1768 C   0  0  0  0  0  0  0  0  0  0  0  0
   13.0537    9.9821   20.5781 C   0  0  0  0  0  0  0  0  0  0  0  0
   10.3850    4.6575   23.2386 O   0  0  0  0  0  0  0  0  0  0  0  0
    4.2069    6.8450   20.7994 C   0  0  0  0  0  0  0  0  0  0  0  0
    3.0726   10.1043   19.8522 O   0  0  0  0  0  0  0  0  0  0  0  0
    5.5057    7.1196   21.1155 C   0  0  0  0  0  0  0  0  0  0  0  0
    7.0367   11.0229   21.9948 O   0  0  0  0  0  0  0  0  0  0  0  0
  1  8  4  0
  1 12  4  0
  2  9  1  0
  2 11  4  0
  2 25  4  0
  3 12  4  0
  3 14  1  0
  3 23  4  0
  4 13  4  0
  4 21  4  0
  4 24  1  0
  5  8  4  0
  5 23  4  0
  6 18  2  0
  7 15  4  0
  7 16  1  0
  7 27  4  0
  8 18  1  0
 10 18  1  0
 10 20  1  0
 11 15  4  0
 11 26  1  0
 13 22  4  0
 16 19  1  0
 16 20  2  0
 17 19  4  0
 17 21  4  0
 19 22  4  0
 20 28  1  0
 25 27  4  0
M  END
$$$$

 Created by Python create_sdf_string function

 28 30  0  0  0  0  0  0  0  0999 V2000
   11.4592   11.2893   18.7941 C   0  0  0  0  0  0  0  0  0  0  0  0
    3.4202    7.9009   20.3866 C   0  0  0  0  0  0  0  0  0  0  0  0
   13.5280   10.3522   19.3586 C   0  0  0  0  0  0  0  0  0  0  0  0
    9.6923    5.6468   22.7891 C   0  0  0  0  0  0  0  0  0  0  0  0
   11.7756   10.2554   20.8841 N   0  0  0  0  0  0  0  0  0  0  0  0
    8.9876   11.9370   19.8757 O   0  0  0  0  0  0  0  0  0  0  0  0
    6.0167    8.4478   21.1089 C   0  0  0  0  0  0  0  0  0  0  0  0
   11.0002   10.8890   20.0262 C   0  0  0  0  0  0  0  0  0  0  0  0
    2.1721    7.7393   20.0315 O   0  0  0  0  0  0  0  0  0  0  0  0
    9.1107   10.3880   21.3769 N   0  0  0  0  0  0  0  0  0  0  0  0
    3.9102    9.2008   20.3124 C   0  0  0  0  0  0  0  0  0  0  0  0
   12.7292   10.9960   18.4597 C   0  0  0  0  0  0  0  0  0  0  0  0
    9.3798    6.6793   23.6625 C   0  0  0  0  0  0  0  0  0  0  0  0
   14.7425   10.0739   19.0802 O   0  0  0  0  0  0  0  0  0  0  0  0
    5.1894    9.4673   20.7118 C   0  0  0  0  0  0  0  0  0  0  0  0
    7.3773    8.8224   21.4870 C   0  0  0  0  0  0  0  0  0  0  0  0
    8.4391    6.6439   21.0235 C   0  0  0  0  0  0  0  0  0  0  0  0
    9.6494   11.1353   20.4167 C   0  0  0  0  0  0  0  0  0  0  0  0
    8.1431    7.6829   21.9046 C   0  0  0  0  0  0  0  0  0  0  0  0
    7.7796   10.1314   21.5115 N   0  0  0  0  0  0  0  0  0  0  0  0
    9.2768    5.6183   21.4437 C   0  0  0  0  0  0  0  0  0  0  0  0
    8.6315    7.7322   23.1768 C   0  0  0  0  0  0  0  0  0  0  0  0
   13.0537    9.9821   20.5781 C   0  0  0  0  0  0  0  0  0  0  0  0
   10.3850    4.6575   23.2386 O   0  0  0  0  0  0  0  0  0  0  0  0
    4.2069    6.8450   20.7994 C   0  0  0  0  0  0  0  0  0  0  0  0
    3.0726   10.1043   19.8522 O   0  0  0  0  0  0  0  0  0  0  0  0
    5.5057    7.1196   21.1155 C   0  0  0  0  0  0  0  0  0  0  0  0
    7.0367   11.0229   21.9948 O   0  0  0  0  0  0  0  0  0  0  0  0
  1  8  4  0
  1 12  4  0
  2  9  1  0
  2 11  4  0
  2 25  4  0
  3 12  4  0
  3 14  1  0
  3 23  4  0
  4 13  4  0
  4 21  4  0
  4 24  1  0
  5  8  4  0
  5 23  4  0
  6 18  2  0
  7 15  4  0
  7 16  1  0
  7 27  4  0
  8 18  1  0
 10 18  1  0
 10 20  1  0
 11 15  4  0
 11 26  1  0
 13 22  4  0
 16 19  1  0
 16 20  2  0
 17 19  4  0
 17 21  4  0
 19 22  4  0
 20 28  1  0
 25 27  4  0
M  END
$$$$

 Created by Python create_sdf_string function

 28 30  0  0  0  0  0  0  0  0999 V2000
   11.4592   11.2893   18.7941 C   0  0  0  0  0  0  0  0  0  0  0  0
    3.4202    7.9009   20.3866 C   0  0  0  0  0  0  0  0  0  0  0  0
   13.5280   10.3522   19.3586 C   0  0  0  0  0  0  0  0  0  0  0  0
    9.6923    5.6468   22.7891 C   0  0  0  0  0  0  0  0  0  0  0  0
   11.7756   10.2554   20.8841 N   0  0  0  0  0  0  0  0  0  0  0  0
    8.9876   11.9370   19.8757 O   0  0  0  0  0  0  0  0  0  0  0  0
    6.0167    8.4478   21.1089 C   0  0  0  0  0  0  0  0  0  0  0  0
   11.0002   10.8890   20.0262 C   0  0  0  0  0  0  0  0  0  0  0  0
    2.1721    7.7393   20.0315 O   0  0  0  0  0  0  0  0  0  0  0  0
    9.1107   10.3880   21.3769 N   0  0  0  0  0  0  0  0  0  0  0  0
    3.9102    9.2008   20.3124 C   0  0  0  0  0  0  0  0  0  0  0  0
   12.7292   10.9960   18.4597 C   0  0  0  0  0  0  0  0  0  0  0  0
    9.3798    6.6793   23.6625 C   0  0  0  0  0  0  0  0  0  0  0  0
   14.7425   10.0739   19.0802 O   0  0  0  0  0  0  0  0  0  0  0  0
    5.1894    9.4673   20.7118 C   0  0  0  0  0  0  0  0  0  0  0  0
    7.3773    8.8224   21.4870 C   0  0  0  0  0  0  0  0  0  0  0  0
    8.4391    6.6439   21.0235 C   0  0  0  0  0  0  0  0  0  0  0  0
    9.6494   11.1353   20.4167 C   0  0  0  0  0  0  0  0  0  0  0  0
    8.1431    7.6829   21.9046 C   0  0  0  0  0  0  0  0  0  0  0  0
    7.7796   10.1314   21.5115 N   0  0  0  0  0  0  0  0  0  0  0  0
    9.2768    5.6183   21.4437 C   0  0  0  0  0  0  0  0  0  0  0  0
    8.6315    7.7322   23.1768 C   0  0  0  0  0  0  0  0  0  0  0  0
   13.0537    9.9821   20.5781 C   0  0  0  0  0  0  0  0  0  0  0  0
   10.3850    4.6575   23.2386 O   0  0  0  0  0  0  0  0  0  0  0  0
    4.2069    6.8450   20.7994 C   0  0  0  0  0  0  0  0  0  0  0  0
    3.0726   10.1043   19.8522 O   0  0  0  0  0  0  0  0  0  0  0  0
    5.5057    7.1196   21.1155 C   0  0  0  0  0  0  0  0  0  0  0  0
    7.0367   11.0229   21.9948 O   0  0  0  0  0  0  0  0  0  0  0  0
  1  8  4  0
  1 12  4  0
  2  9  1  0
  2 11  4  0
  2 25  4  0
  3 12  4  0
  3 14  1  0
  3 23  4  0
  4 13  4  0
  4 21  4  0
  4 24  1  0
  5  8  4  0
  5 23  4  0
  6 18  2  0
  7 15  4  0
  7 16  1  0
  7 27  4  0
  8 18  1  0
 10 18  1  0
 10 20  1  0
 11 15  4  0
 11 26  1  0
 13 22  4  0
 16 19  1  0
 16 20  2  0
 17 19  4  0
 17 21  4  0
 19 22  4  0
 20 28  1  0
 25 27  4  0
M  END
$$$$

 Created by Python create_sdf_string function

 28 30  0  0  0  0  0  0  0  0999 V2000
   11.4592   11.2893   18.7941 C   0  0  0  0  0  0  0  0  0  0  0  0
    3.4202    7.9009   20.3866 C   0  0  0  0  0  0  0  0  0  0  0  0
   13.5280   10.3522   19.3586 C   0  0  0  0  0  0  0  0  0  0  0  0
    9.6923    5.6468   22.7891 C   0  0  0  0  0  0  0  0  0  0  0  0
   11.7756   10.2554   20.8841 N   0  0  0  0  0  0  0  0  0  0  0  0
    8.9876   11.9370   19.8757 O   0  0  0  0  0  0  0  0  0  0  0  0
    6.0167    8.4478   21.1089 C   0  0  0  0  0  0  0  0  0  0  0  0
   11.0002   10.8890   20.0262 C   0  0  0  0  0  0  0  0  0  0  0  0
    2.1721    7.7393   20.0315 O   0  0  0  0  0  0  0  0  0  0  0  0
    9.1107   10.3880   21.3769 N   0  0  0  0  0  0  0  0  0  0  0  0
    3.9102    9.2008   20.3124 C   0  0  0  0  0  0  0  0  0  0  0  0
   12.7292   10.9960   18.4597 C   0  0  0  0  0  0  0  0  0  0  0  0
    9.3798    6.6793   23.6625 C   0  0  0  0  0  0  0  0  0  0  0  0
   14.7425   10.0739   19.0802 O   0  0  0  0  0  0  0  0  0  0  0  0
    5.1894    9.4673   20.7118 C   0  0  0  0  0  0  0  0  0  0  0  0
    7.3773    8.8224   21.4870 C   0  0  0  0  0  0  0  0  0  0  0  0
    8.4391    6.6439   21.0235 C   0  0  0  0  0  0  0  0  0  0  0  0
    9.6494   11.1353   20.4167 C   0  0  0  0  0  0  0  0  0  0  0  0
    8.1431    7.6829   21.9046 C   0  0  0  0  0  0  0  0  0  0  0  0
    7.7796   10.1314   21.5115 N   0  0  0  0  0  0  0  0  0  0  0  0
    9.2768    5.6183   21.4437 C   0  0  0  0  0  0  0  0  0  0  0  0
    8.6315    7.7322   23.1768 C   0  0  0  0  0  0  0  0  0  0  0  0
   13.0537    9.9821   20.5781 C   0  0  0  0  0  0  0  0  0  0  0  0
   10.3850    4.6575   23.2386 O   0  0  0  0  0  0  0  0  0  0  0  0
    4.2069    6.8450   20.7994 C   0  0  0  0  0  0  0  0  0  0  0  0
    3.0726   10.1043   19.8522 O   0  0  0  0  0  0  0  0  0  0  0  0
    5.5057    7.1196   21.1155 C   0  0  0  0  0  0  0  0  0  0  0  0
    7.0367   11.0229   21.9948 O   0  0  0  0  0  0  0  0  0  0  0  0
  1  8  4  0
  1 12  4  0
  2  9  1  0
  2 11  4  0
  2 25  4  0
  3 12  4  0
  3 14  1  0
  3 23  4  0
  4 13  4  0
  4 21  4  0
  4 24  1  0
  5  8  4  0
  5 23  4  0
  6 18  2  0
  7 15  4  0
  7 16  1  0
  7 27  4  0
  8 18  1  0
 10 18  1  0
 10 20  1  0
 11 15  4  0
 11 26  1  0
 13 22  4  0
 16 19  1  0
 16 20  2  0
 17 19  4  0
 17 21  4  0
 19 22  4  0
 20 28  1  0
 25 27  4  0
M  END
$$$$

 Created by Python create_sdf_string function

 28 30  0  0  0  0  0  0  0  0999 V2000
   11.4592   11.2893   18.7941 C   0  0  0  0  0  0  0  0  0  0  0  0
    3.4202    7.9009   20.3866 C   0  0  0  0  0  0  0  0  0  0  0  0
   13.5280   10.3522   19.3586 C   0  0  0  0  0  0  0  0  0  0  0  0
    9.6923    5.6468   22.7891 C   0  0  0  0  0  0  0  0  0  0  0  0
   11.7756   10.2554   20.8841 N   0  0  0  0  0  0  0  0  0  0  0  0
    8.9876   11.9370   19.8757 O   0  0  0  0  0  0  0  0  0  0  0  0
    6.0167    8.4478   21.1089 C   0  0  0  0  0  0  0  0  0  0  0  0
   11.0002   10.8890   20.0262 C   0  0  0  0  0  0  0  0  0  0  0  0
    2.1721    7.7393   20.0315 O   0  0  0  0  0  0  0  0  0  0  0  0
    9.1107   10.3880   21.3769 N   0  0  0  0  0  0  0  0  0  0  0  0
    3.9102    9.2008   20.3124 C   0  0  0  0  0  0  0  0  0  0  0  0
   12.7292   10.9960   18.4597 C   0  0  0  0  0  0  0  0  0  0  0  0
    9.3798    6.6793   23.6625 C   0  0  0  0  0  0  0  0  0  0  0  0
   14.7425   10.0739   19.0802 O   0  0  0  0  0  0  0  0  0  0  0  0
    5.1894    9.4673   20.7118 C   0  0  0  0  0  0  0  0  0  0  0  0
    7.3773    8.8224   21.4870 C   0  0  0  0  0  0  0  0  0  0  0  0
    8.4391    6.6439   21.0235 C   0  0  0  0  0  0  0  0  0  0  0  0
    9.6494   11.1353   20.4167 C   0  0  0  0  0  0  0  0  0  0  0  0
    8.1431    7.6829   21.9046 C   0  0  0  0  0  0  0  0  0  0  0  0
    7.7796   10.1314   21.5115 N   0  0  0  0  0  0  0  0  0  0  0  0
    9.2768    5.6183   21.4437 C   0  0  0  0  0  0  0  0  0  0  0  0
    8.6315    7.7322   23.1768 C   0  0  0  0  0  0  0  0  0  0  0  0
   13.0537    9.9821   20.5781 C   0  0  0  0  0  0  0  0  0  0  0  0
   10.3850    4.6575   23.2386 O   0  0  0  0  0  0  0  0  0  0  0  0
    4.2069    6.8450   20.7994 C   0  0  0  0  0  0  0  0  0  0  0  0
    3.0726   10.1043   19.8522 O   0  0  0  0  0  0  0  0  0  0  0  0
    5.5057    7.1196   21.1155 C   0  0  0  0  0  0  0  0  0  0  0  0
    7.0367   11.0229   21.9948 O   0  0  0  0  0  0  0  0  0  0  0  0
  1  8  4  0
  1 12  4  0
  2  9  1  0
  2 11  4  0
  2 25  4  0
  3 12  4  0
  3 14  1  0
  3 23  4  0
  4 13  4  0
  4 21  4  0
  4 24  1  0
  5  8  4  0
  5 23  4  0
  6 18  2  0
  7 15  4  0
  7 16  1  0
  7 27  4  0
  8 18  1  0
 10 18  1  0
 10 20  1  0
 11 15  4  0
 11 26  1  0
 13 22  4  0
 16 19  1  0
 16 20  2  0
 17 19  4  0
 17 21  4  0
 19 22  4  0
 20 28  1  0
 25 27  4  0
M  END
$$$$

 Created by Python create_sdf_string function

 28 30  0  0  0  0  0  0  0  0999 V2000
   11.4592   11.2893   18.7941 C   0  0  0  0  0  0  0  0  0  0  0  0
    3.4202    7.9009   20.3866 C   0  0  0  0  0  0  0  0  0  0  0  0
   13.5280   10.3522   19.3586 C   0  0  0  0  0  0  0  0  0  0  0  0
    9.6923    5.6468   22.7891 C   0  0  0  0  0  0  0  0  0  0  0  0
   11.7756   10.2554   20.8841 N   0  0  0  0  0  0  0  0  0  0  0  0
    8.9876   11.9370   19.8757 O   0  0  0  0  0  0  0  0  0  0  0  0
    6.0167    8.4478   21.1089 C   0  0  0  0  0  0  0  0  0  0  0  0
   11.0002   10.8890   20.0262 C   0  0  0  0  0  0  0  0  0  0  0  0
    2.1721    7.7393   20.0315 O   0  0  0  0  0  0  0  0  0  0  0  0
    9.1107   10.3880   21.3769 N   0  0  0  0  0  0  0  0  0  0  0  0
    3.9102    9.2008   20.3124 C   0  0  0  0  0  0  0  0  0  0  0  0
   12.7292   10.9960   18.4597 C   0  0  0  0  0  0  0  0  0  0  0  0
    9.3798    6.6793   23.6625 C   0  0  0  0  0  0  0  0  0  0  0  0
   14.7425   10.0739   19.0802 O   0  0  0  0  0  0  0  0  0  0  0  0
    5.1894    9.4673   20.7118 C   0  0  0  0  0  0  0  0  0  0  0  0
    7.3773    8.8224   21.4870 C   0  0  0  0  0  0  0  0  0  0  0  0
    8.4391    6.6439   21.0235 C   0  0  0  0  0  0  0  0  0  0  0  0
    9.6494   11.1353   20.4167 C   0  0  0  0  0  0  0  0  0  0  0  0
    8.1431    7.6829   21.9046 C   0  0  0  0  0  0  0  0  0  0  0  0
    7.7796   10.1314   21.5115 N   0  0  0  0  0  0  0  0  0  0  0  0
    9.2768    5.6183   21.4437 C   0  0  0  0  0  0  0  0  0  0  0  0
    8.6315    7.7322   23.1768 C   0  0  0  0  0  0  0  0  0  0  0  0
   13.0537    9.9821   20.5781 C   0  0  0  0  0  0  0  0  0  0  0  0
   10.3850    4.6575   23.2386 O   0  0  0  0  0  0  0  0  0  0  0  0
    4.2069    6.8450   20.7994 C   0  0  0  0  0  0  0  0  0  0  0  0
    3.0726   10.1043   19.8522 O   0  0  0  0  0  0  0  0  0  0  0  0
    5.5057    7.1196   21.1155 C   0  0  0  0  0  0  0  0  0  0  0  0
    7.0367   11.0229   21.9948 O   0  0  0  0  0  0  0  0  0  0  0  0
  1  8  4  0
  1 12  4  0
  2  9  1  0
  2 11  4  0
  2 25  4  0
  3 12  4  0
  3 14  1  0
  3 23  4  0
  4 13  4  0
  4 21  4  0
  4 24  1  0
  5  8  4  0
  5 23  4  0
  6 18  2  0
  7 15  4  0
  7 16  1  0
  7 27  4  0
  8 18  1  0
 10 18  1  0
 10 20  1  0
 11 15  4  0
 11 26  1  0
 13 22  4  0
 16 19  1  0
 16 20  2  0
 17 19  4  0
 17 21  4  0
 19 22  4  0
 20 28  1  0
 25 27  4  0
M  END
$$$$

 Created by Python create_sdf_string function

 28 30  0  0  0  0  0  0  0  0999 V2000
   11.4592   11.2893   18.7941 C   0  0  0  0  0  0  0  0  0  0  0  0
    3.4202    7.9009   20.3866 C   0  0  0  0  0  0  0  0  0  0  0  0
   13.5280   10.3522   19.3586 C   0  0  0  0  0  0  0  0  0  0  0  0
    9.6923    5.6468   22.7891 C   0  0  0  0  0  0  0  0  0  0  0  0
   11.7756   10.2554   20.8841 N   0  0  0  0  0  0  0  0  0  0  0  0
    8.9876   11.9370   19.8757 O   0  0  0  0  0  0  0  0  0  0  0  0
    6.0167    8.4478   21.1089 C   0  0  0  0  0  0  0  0  0  0  0  0
   11.0002   10.8890   20.0262 C   0  0  0  0  0  0  0  0  0  0  0  0
    2.1721    7.7393   20.0315 O   0  0  0  0  0  0  0  0  0  0  0  0
    9.1107   10.3880   21.3769 N   0  0  0  0  0  0  0  0  0  0  0  0
    3.9102    9.2008   20.3124 C   0  0  0  0  0  0  0  0  0  0  0  0
   12.7292   10.9960   18.4597 C   0  0  0  0  0  0  0  0  0  0  0  0
    9.3798    6.6793   23.6625 C   0  0  0  0  0  0  0  0  0  0  0  0
   14.7425   10.0739   19.0802 O   0  0  0  0  0  0  0  0  0  0  0  0
    5.1894    9.4673   20.7118 C   0  0  0  0  0  0  0  0  0  0  0  0
    7.3773    8.8224   21.4870 C   0  0  0  0  0  0  0  0  0  0  0  0
    8.4391    6.6439   21.0235 C   0  0  0  0  0  0  0  0  0  0  0  0
    9.6494   11.1353   20.4167 C   0  0  0  0  0  0  0  0  0  0  0  0
    8.1431    7.6829   21.9046 C   0  0  0  0  0  0  0  0  0  0  0  0
    7.7796   10.1314   21.5115 N   0  0  0  0  0  0  0  0  0  0  0  0
    9.2768    5.6183   21.4437 C   0  0  0  0  0  0  0  0  0  0  0  0
    8.6315    7.7322   23.1768 C   0  0  0  0  0  0  0  0  0  0  0  0
   13.0537    9.9821   20.5781 C   0  0  0  0  0  0  0  0  0  0  0  0
   10.3850    4.6575   23.2386 O   0  0  0  0  0  0  0  0  0  0  0  0
    4.2069    6.8450   20.7994 C   0  0  0  0  0  0  0  0  0  0  0  0
    3.0726   10.1043   19.8522 O   0  0  0  0  0  0  0  0  0  0  0  0
    5.5057    7.1196   21.1155 C   0  0  0  0  0  0  0  0  0  0  0  0
    7.0367   11.0229   21.9948 O   0  0  0  0  0  0  0  0  0  0  0  0
  1  8  4  0
  1 12  4  0
  2  9  1  0
  2 11  4  0
  2 25  4  0
  3 12  4  0
  3 14  1  0
  3 23  4  0
  4 13  4  0
  4 21  4  0
  4 24  1  0
  5  8  4  0
  5 23  4  0
  6 18  2  0
  7 15  4  0
  7 16  1  0
  7 27  4  0
  8 18  1  0
 10 18  1  0
 10 20  1  0
 11 15  4  0
 11 26  1  0
 13 22  4  0
 16 19  1  0
 16 20  2  0
 17 19  4  0
 17 21  4  0
 19 22  4  0
 20 28  1  0
 25 27  4  0
M  END
$$$$

 Created by Python create_sdf_string function

 28 30  0  0  0  0  0  0  0  0999 V2000
   11.4592   11.2893   18.7941 C   0  0  0  0  0  0  0  0  0  0  0  0
    3.4202    7.9009   20.3866 C   0  0  0  0  0  0  0  0  0  0  0  0
   13.5280   10.3522   19.3586 C   0  0  0  0  0  0  0  0  0  0  0  0
    9.6923    5.6468   22.7891 C   0  0  0  0  0  0  0  0  0  0  0  0
   11.7756   10.2554   20.8841 N   0  0  0  0  0  0  0  0  0  0  0  0
    8.9876   11.9370   19.8757 O   0  0  0  0  0  0  0  0  0  0  0  0
    6.0167    8.4478   21.1089 C   0  0  0  0  0  0  0  0  0  0  0  0
   11.0002   10.8890   20.0262 C   0  0  0  0  0  0  0  0  0  0  0  0
    2.1721    7.7393   20.0315 O   0  0  0  0  0  0  0  0  0  0  0  0
    9.1107   10.3880   21.3769 N   0  0  0  0  0  0  0  0  0  0  0  0
    3.9102    9.2008   20.3124 C   0  0  0  0  0  0  0  0  0  0  0  0
   12.7292   10.9960   18.4597 C   0  0  0  0  0  0  0  0  0  0  0  0
    9.3798    6.6793   23.6625 C   0  0  0  0  0  0  0  0  0  0  0  0
   14.7425   10.0739   19.0802 O   0  0  0  0  0  0  0  0  0  0  0  0
    5.1894    9.4673   20.7118 C   0  0  0  0  0  0  0  0  0  0  0  0
    7.3773    8.8224   21.4870 C   0  0  0  0  0  0  0  0  0  0  0  0
    8.4391    6.6439   21.0235 C   0  0  0  0  0  0  0  0  0  0  0  0
    9.6494   11.1353   20.4167 C   0  0  0  0  0  0  0  0  0  0  0  0
    8.1431    7.6829   21.9046 C   0  0  0  0  0  0  0  0  0  0  0  0
    7.7796   10.1314   21.5115 N   0  0  0  0  0  0  0  0  0  0  0  0
    9.2768    5.6183   21.4437 C   0  0  0  0  0  0  0  0  0  0  0  0
    8.6315    7.7322   23.1768 C   0  0  0  0  0  0  0  0  0  0  0  0
   13.0537    9.9821   20.5781 C   0  0  0  0  0  0  0  0  0  0  0  0
   10.3850    4.6575   23.2386 O   0  0  0  0  0  0  0  0  0  0  0  0
    4.2069    6.8450   20.7994 C   0  0  0  0  0  0  0  0  0  0  0  0
    3.0726   10.1043   19.8522 O   0  0  0  0  0  0  0  0  0  0  0  0
    5.5057    7.1196   21.1155 C   0  0  0  0  0  0  0  0  0  0  0  0
    7.0367   11.0229   21.9948 O   0  0  0  0  0  0  0  0  0  0  0  0
  1  8  4  0
  1 12  4  0
  2  9  1  0
  2 11  4  0
  2 25  4  0
  3 12  4  0
  3 14  1  0
  3 23  4  0
  4 13  4  0
  4 21  4  0
  4 24  1  0
  5  8  4  0
  5 23  4  0
  6 18  2  0
  7 15  4  0
  7 16  1  0
  7 27  4  0
  8 18  1  0
 10 18  1  0
 10 20  1  0
 11 15  4  0
 11 26  1  0
 13 22  4  0
 16 19  1  0
 16 20  2  0
 17 19  4  0
 17 21  4  0
 19 22  4  0
 20 28  1  0
 25 27  4  0
M  END
$$$$

 Created by Python create_sdf_string function

 28 30  0  0  0  0  0  0  0  0999 V2000
   11.4592   11.2893   18.7941 C   0  0  0  0  0  0  0  0  0  0  0  0
    3.4202    7.9009   20.3866 C   0  0  0  0  0  0  0  0  0  0  0  0
   13.5280   10.3522   19.3586 C   0  0  0  0  0  0  0  0  0  0  0  0
    9.6923    5.6468   22.7891 C   0  0  0  0  0  0  0  0  0  0  0  0
   11.7756   10.2554   20.8841 N   0  0  0  0  0  0  0  0  0  0  0  0
    8.9876   11.9370   19.8757 O   0  0  0  0  0  0  0  0  0  0  0  0
    6.0167    8.4478   21.1089 C   0  0  0  0  0  0  0  0  0  0  0  0
   11.0002   10.8890   20.0262 C   0  0  0  0  0  0  0  0  0  0  0  0
    2.1721    7.7393   20.0315 O   0  0  0  0  0  0  0  0  0  0  0  0
    9.1107   10.3880   21.3769 N   0  0  0  0  0  0  0  0  0  0  0  0
    3.9102    9.2008   20.3124 C   0  0  0  0  0  0  0  0  0  0  0  0
   12.7292   10.9960   18.4597 C   0  0  0  0  0  0  0  0  0  0  0  0
    9.3798    6.6793   23.6625 C   0  0  0  0  0  0  0  0  0  0  0  0
   14.7425   10.0739   19.0802 O   0  0  0  0  0  0  0  0  0  0  0  0
    5.1894    9.4673   20.7118 C   0  0  0  0  0  0  0  0  0  0  0  0
    7.3773    8.8224   21.4870 C   0  0  0  0  0  0  0  0  0  0  0  0
    8.4391    6.6439   21.0235 C   0  0  0  0  0  0  0  0  0  0  0  0
    9.6494   11.1353   20.4167 C   0  0  0  0  0  0  0  0  0  0  0  0
    8.1431    7.6829   21.9046 C   0  0  0  0  0  0  0  0  0  0  0  0
    7.7796   10.1314   21.5115 N   0  0  0  0  0  0  0  0  0  0  0  0
    9.2768    5.6183   21.4437 C   0  0  0  0  0  0  0  0  0  0  0  0
    8.6315    7.7322   23.1768 C   0  0  0  0  0  0  0  0  0  0  0  0
   13.0537    9.9821   20.5781 C   0  0  0  0  0  0  0  0  0  0  0  0
   10.3850    4.6575   23.2386 O   0  0  0  0  0  0  0  0  0  0  0  0
    4.2069    6.8450   20.7994 C   0  0  0  0  0  0  0  0  0  0  0  0
    3.0726   10.1043   19.8522 O   0  0  0  0  0  0  0  0  0  0  0  0
    5.5057    7.1196   21.1155 C   0  0  0  0  0  0  0  0  0  0  0  0
    7.0367   11.0229   21.9948 O   0  0  0  0  0  0  0  0  0  0  0  0
  1  8  4  0
  1 12  4  0
  2  9  1  0
  2 11  4  0
  2 25  4  0
  3 12  4  0
  3 14  1  0
  3 23  4  0
  4 13  4  0
  4 21  4  0
  4 24  1  0
  5  8  4  0
  5 23  4  0
  6 18  2  0
  7 15  4  0
  7 16  1  0
  7 27  4  0
  8 18  1  0
 10 18  1  0
 10 20  1  0
 11 15  4  0
 11 26  1  0
 13 22  4  0
 16 19  1  0
 16 20  2  0
 17 19  4  0
 17 21  4  0
 19 22  4  0
 20 28  1  0
 25 27  4  0
M  END
$$$$

 Created by Python create_sdf_string function

 28 30  0  0  0  0  0  0  0  0999 V2000
   11.4592   11.2893   18.7941 C   0  0  0  0  0  0  0  0  0  0  0  0
    3.4202    7.9009   20.3866 C   0  0  0  0  0  0  0  0  0  0  0  0
   13.5280   10.3522   19.3586 C   0  0  0  0  0  0  0  0  0  0  0  0
    9.6923    5.6468   22.7891 C   0  0  0  0  0  0  0  0  0  0  0  0
   11.7756   10.2554   20.8841 N   0  0  0  0  0  0  0  0  0  0  0  0
    8.9876   11.9370   19.8757 O   0  0  0  0  0  0  0  0  0  0  0  0
    6.0167    8.4478   21.1089 C   0  0  0  0  0  0  0  0  0  0  0  0
   11.0002   10.8890   20.0262 C   0  0  0  0  0  0  0  0  0  0  0  0
    2.1721    7.7393   20.0315 O   0  0  0  0  0  0  0  0  0  0  0  0
    9.1107   10.3880   21.3769 N   0  0  0  0  0  0  0  0  0  0  0  0
    3.9102    9.2008   20.3124 C   0  0  0  0  0  0  0  0  0  0  0  0
   12.7292   10.9960   18.4597 C   0  0  0  0  0  0  0  0  0  0  0  0
    9.3798    6.6793   23.6625 C   0  0  0  0  0  0  0  0  0  0  0  0
   14.7425   10.0739   19.0802 O   0  0  0  0  0  0  0  0  0  0  0  0
    5.1894    9.4673   20.7118 C   0  0  0  0  0  0  0  0  0  0  0  0
    7.3773    8.8224   21.4870 C   0  0  0  0  0  0  0  0  0  0  0  0
    8.4391    6.6439   21.0235 C   0  0  0  0  0  0  0  0  0  0  0  0
    9.6494   11.1353   20.4167 C   0  0  0  0  0  0  0  0  0  0  0  0
    8.1431    7.6829   21.9046 C   0  0  0  0  0  0  0  0  0  0  0  0
    7.7796   10.1314   21.5115 N   0  0  0  0  0  0  0  0  0  0  0  0
    9.2768    5.6183   21.4437 C   0  0  0  0  0  0  0  0  0  0  0  0
    8.6315    7.7322   23.1768 C   0  0  0  0  0  0  0  0  0  0  0  0
   13.0537    9.9821   20.5781 C   0  0  0  0  0  0  0  0  0  0  0  0
   10.3850    4.6575   23.2386 O   0  0  0  0  0  0  0  0  0  0  0  0
    4.2069    6.8450   20.7994 C   0  0  0  0  0  0  0  0  0  0  0  0
    3.0726   10.1043   19.8522 O   0  0  0  0  0  0  0  0  0  0  0  0
    5.5057    7.1196   21.1155 C   0  0  0  0  0  0  0  0  0  0  0  0
    7.0367   11.0229   21.9948 O   0  0  0  0  0  0  0  0  0  0  0  0
  1  8  4  0
  1 12  4  0
  2  9  1  0
  2 11  4  0
  2 25  4  0
  3 12  4  0
  3 14  1  0
  3 23  4  0
  4 13  4  0
  4 21  4  0
  4 24  1  0
  5  8  4  0
  5 23  4  0
  6 18  2  0
  7 15  4  0
  7 16  1  0
  7 27  4  0
  8 18  1  0
 10 18  1  0
 10 20  1  0
 11 15  4  0
 11 26  1  0
 13 22  4  0
 16 19  1  0
 16 20  2  0
 17 19  4  0
 17 21  4  0
 19 22  4  0
 20 28  1  0
 25 27  4  0
M  END
$$$$

 Created by Python create_sdf_string function

 28 30  0  0  0  0  0  0  0  0999 V2000
   11.4592   11.2893   18.7941 C   0  0  0  0  0  0  0  0  0  0  0  0
    3.4202    7.9009   20.3866 C   0  0  0  0  0  0  0  0  0  0  0  0
   13.5280   10.3522   19.3586 C   0  0  0  0  0  0  0  0  0  0  0  0
    9.6923    5.6468   22.7891 C   0  0  0  0  0  0  0  0  0  0  0  0
   11.7756   10.2554   20.8841 N   0  0  0  0  0  0  0  0  0  0  0  0
    8.9876   11.9370   19.8757 O   0  0  0  0  0  0  0  0  0  0  0  0
    6.0167    8.4478   21.1089 C   0  0  0  0  0  0  0  0  0  0  0  0
   11.0002   10.8890   20.0262 C   0  0  0  0  0  0  0  0  0  0  0  0
    2.1721    7.7393   20.0315 O   0  0  0  0  0  0  0  0  0  0  0  0
    9.1107   10.3880   21.3769 N   0  0  0  0  0  0  0  0  0  0  0  0
    3.9102    9.2008   20.3124 C   0  0  0  0  0  0  0  0  0  0  0  0
   12.7292   10.9960   18.4597 C   0  0  0  0  0  0  0  0  0  0  0  0
    9.3798    6.6793   23.6625 C   0  0  0  0  0  0  0  0  0  0  0  0
   14.7425   10.0739   19.0802 O   0  0  0  0  0  0  0  0  0  0  0  0
    5.1894    9.4673   20.7118 C   0  0  0  0  0  0  0  0  0  0  0  0
    7.3773    8.8224   21.4870 C   0  0  0  0  0  0  0  0  0  0  0  0
    8.4391    6.6439   21.0235 C   0  0  0  0  0  0  0  0  0  0  0  0
    9.6494   11.1353   20.4167 C   0  0  0  0  0  0  0  0  0  0  0  0
    8.1431    7.6829   21.9046 C   0  0  0  0  0  0  0  0  0  0  0  0
    7.7796   10.1314   21.5115 N   0  0  0  0  0  0  0  0  0  0  0  0
    9.2768    5.6183   21.4437 C   0  0  0  0  0  0  0  0  0  0  0  0
    8.6315    7.7322   23.1768 C   0  0  0  0  0  0  0  0  0  0  0  0
   13.0537    9.9821   20.5781 C   0  0  0  0  0  0  0  0  0  0  0  0
   10.3850    4.6575   23.2386 O   0  0  0  0  0  0  0  0  0  0  0  0
    4.2069    6.8450   20.7994 C   0  0  0  0  0  0  0  0  0  0  0  0
    3.0726   10.1043   19.8522 O   0  0  0  0  0  0  0  0  0  0  0  0
    5.5057    7.1196   21.1155 C   0  0  0  0  0  0  0  0  0  0  0  0
    7.0367   11.0229   21.9948 O   0  0  0  0  0  0  0  0  0  0  0  0
  1  8  4  0
  1 12  4  0
  2  9  1  0
  2 11  4  0
  2 25  4  0
  3 12  4  0
  3 14  1  0
  3 23  4  0
  4 13  4  0
  4 21  4  0
  4 24  1  0
  5  8  4  0
  5 23  4  0
  6 18  2  0
  7 15  4  0
  7 16  1  0
  7 27  4  0
  8 18  1  0
 10 18  1  0
 10 20  1  0
 11 15  4  0
 11 26  1  0
 13 22  4  0
 16 19  1  0
 16 20  2  0
 17 19  4  0
 17 21  4  0
 19 22  4  0
 20 28  1  0
 25 27  4  0
M  END
$$$$

 Created by Python create_sdf_string function

 28 30  0  0  0  0  0  0  0  0999 V2000
   11.4592   11.2893   18.7941 C   0  0  0  0  0  0  0  0  0  0  0  0
    3.4202    7.9009   20.3866 C   0  0  0  0  0  0  0  0  0  0  0  0
   13.5280   10.3522   19.3586 C   0  0  0  0  0  0  0  0  0  0  0  0
    9.6923    5.6468   22.7891 C   0  0  0  0  0  0  0  0  0  0  0  0
   11.7756   10.2554   20.8841 N   0  0  0  0  0  0  0  0  0  0  0  0
    8.9876   11.9370   19.8757 O   0  0  0  0  0  0  0  0  0  0  0  0
    6.0167    8.4478   21.1089 C   0  0  0  0  0  0  0  0  0  0  0  0
   11.0002   10.8890   20.0262 C   0  0  0  0  0  0  0  0  0  0  0  0
    2.1721    7.7393   20.0315 O   0  0  0  0  0  0  0  0  0  0  0  0
    9.1107   10.3880   21.3769 N   0  0  0  0  0  0  0  0  0  0  0  0
    3.9102    9.2008   20.3124 C   0  0  0  0  0  0  0  0  0  0  0  0
   12.7292   10.9960   18.4597 C   0  0  0  0  0  0  0  0  0  0  0  0
    9.3798    6.6793   23.6625 C   0  0  0  0  0  0  0  0  0  0  0  0
   14.7425   10.0739   19.0802 O   0  0  0  0  0  0  0  0  0  0  0  0
    5.1894    9.4673   20.7118 C   0  0  0  0  0  0  0  0  0  0  0  0
    7.3773    8.8224   21.4870 C   0  0  0  0  0  0  0  0  0  0  0  0
    8.4391    6.6439   21.0235 C   0  0  0  0  0  0  0  0  0  0  0  0
    9.6494   11.1353   20.4167 C   0  0  0  0  0  0  0  0  0  0  0  0
    8.1431    7.6829   21.9046 C   0  0  0  0  0  0  0  0  0  0  0  0
    7.7796   10.1314   21.5115 N   0  0  0  0  0  0  0  0  0  0  0  0
    9.2768    5.6183   21.4437 C   0  0  0  0  0  0  0  0  0  0  0  0
    8.6315    7.7322   23.1768 C   0  0  0  0  0  0  0  0  0  0  0  0
   13.0537    9.9821   20.5781 C   0  0  0  0  0  0  0  0  0  0  0  0
   10.3850    4.6575   23.2386 O   0  0  0  0  0  0  0  0  0  0  0  0
    4.2069    6.8450   20.7994 C   0  0  0  0  0  0  0  0  0  0  0  0
    3.0726   10.1043   19.8522 O   0  0  0  0  0  0  0  0  0  0  0  0
    5.5057    7.1196   21.1155 C   0  0  0  0  0  0  0  0  0  0  0  0
    7.0367   11.0229   21.9948 O   0  0  0  0  0  0  0  0  0  0  0  0
  1  8  4  0
  1 12  4  0
  2  9  1  0
  2 11  4  0
  2 25  4  0
  3 12  4  0
  3 14  1  0
  3 23  4  0
  4 13  4  0
  4 21  4  0
  4 24  1  0
  5  8  4  0
  5 23  4  0
  6 18  2  0
  7 15  4  0
  7 16  1  0
  7 27  4  0
  8 18  1  0
 10 18  1  0
 10 20  1  0
 11 15  4  0
 11 26  1  0
 13 22  4  0
 16 19  1  0
 16 20  2  0
 17 19  4  0
 17 21  4  0
 19 22  4  0
 20 28  1  0
 25 27  4  0
M  END
$$$$

 Created by Python create_sdf_string function

 28 30  0  0  0  0  0  0  0  0999 V2000
   11.4592   11.2893   18.7941 C   0  0  0  0  0  0  0  0  0  0  0  0
    3.4202    7.9009   20.3866 C   0  0  0  0  0  0  0  0  0  0  0  0
   13.5280   10.3522   19.3586 C   0  0  0  0  0  0  0  0  0  0  0  0
    9.6923    5.6468   22.7891 C   0  0  0  0  0  0  0  0  0  0  0  0
   11.7756   10.2554   20.8841 N   0  0  0  0  0  0  0  0  0  0  0  0
    8.9876   11.9370   19.8757 O   0  0  0  0  0  0  0  0  0  0  0  0
    6.0167    8.4478   21.1089 C   0  0  0  0  0  0  0  0  0  0  0  0
   11.0002   10.8890   20.0262 C   0  0  0  0  0  0  0  0  0  0  0  0
    2.1721    7.7393   20.0315 O   0  0  0  0  0  0  0  0  0  0  0  0
    9.1107   10.3880   21.3769 N   0  0  0  0  0  0  0  0  0  0  0  0
    3.9102    9.2008   20.3124 C   0  0  0  0  0  0  0  0  0  0  0  0
   12.7292   10.9960   18.4597 C   0  0  0  0  0  0  0  0  0  0  0  0
    9.3798    6.6793   23.6625 C   0  0  0  0  0  0  0  0  0  0  0  0
   14.7425   10.0739   19.0802 O   0  0  0  0  0  0  0  0  0  0  0  0
    5.1894    9.4673   20.7118 C   0  0  0  0  0  0  0  0  0  0  0  0
    7.3773    8.8224   21.4870 C   0  0  0  0  0  0  0  0  0  0  0  0
    8.4391    6.6439   21.0235 C   0  0  0  0  0  0  0  0  0  0  0  0
    9.6494   11.1353   20.4167 C   0  0  0  0  0  0  0  0  0  0  0  0
    8.1431    7.6829   21.9046 C   0  0  0  0  0  0  0  0  0  0  0  0
    7.7796   10.1314   21.5115 N   0  0  0  0  0  0  0  0  0  0  0  0
    9.2768    5.6183   21.4437 C   0  0  0  0  0  0  0  0  0  0  0  0
    8.6315    7.7322   23.1768 C   0  0  0  0  0  0  0  0  0  0  0  0
   13.0537    9.9821   20.5781 C   0  0  0  0  0  0  0  0  0  0  0  0
   10.3850    4.6575   23.2386 O   0  0  0  0  0  0  0  0  0  0  0  0
    4.2069    6.8450   20.7994 C   0  0  0  0  0  0  0  0  0  0  0  0
    3.0726   10.1043   19.8522 O   0  0  0  0  0  0  0  0  0  0  0  0
    5.5057    7.1196   21.1155 C   0  0  0  0  0  0  0  0  0  0  0  0
    7.0367   11.0229   21.9948 O   0  0  0  0  0  0  0  0  0  0  0  0
  1  8  4  0
  1 12  4  0
  2  9  1  0
  2 11  4  0
  2 25  4  0
  3 12  4  0
  3 14  1  0
  3 23  4  0
  4 13  4  0
  4 21  4  0
  4 24  1  0
  5  8  4  0
  5 23  4  0
  6 18  2  0
  7 15  4  0
  7 16  1  0
  7 27  4  0
  8 18  1  0
 10 18  1  0
 10 20  1  0
 11 15  4  0
 11 26  1  0
 13 22  4  0
 16 19  1  0
 16 20  2  0
 17 19  4  0
 17 21  4  0
 19 22  4  0
 20 28  1  0
 25 27  4  0
M  END
$$$$

 Created by Python create_sdf_string function

 28 30  0  0  0  0  0  0  0  0999 V2000
   11.4592   11.2893   18.7941 C   0  0  0  0  0  0  0  0  0  0  0  0
    3.4202    7.9009   20.3866 C   0  0  0  0  0  0  0  0  0  0  0  0
   13.5280   10.3522   19.3586 C   0  0  0  0  0  0  0  0  0  0  0  0
    9.6923    5.6468   22.7891 C   0  0  0  0  0  0  0  0  0  0  0  0
   11.7756   10.2554   20.8841 N   0  0  0  0  0  0  0  0  0  0  0  0
    8.9876   11.9370   19.8757 O   0  0  0  0  0  0  0  0  0  0  0  0
    6.0167    8.4478   21.1089 C   0  0  0  0  0  0  0  0  0  0  0  0
   11.0002   10.8890   20.0262 C   0  0  0  0  0  0  0  0  0  0  0  0
    2.1721    7.7393   20.0315 O   0  0  0  0  0  0  0  0  0  0  0  0
    9.1107   10.3880   21.3769 N   0  0  0  0  0  0  0  0  0  0  0  0
    3.9102    9.2008   20.3124 C   0  0  0  0  0  0  0  0  0  0  0  0
   12.7292   10.9960   18.4597 C   0  0  0  0  0  0  0  0  0  0  0  0
    9.3798    6.6793   23.6625 C   0  0  0  0  0  0  0  0  0  0  0  0
   14.7425   10.0739   19.0802 O   0  0  0  0  0  0  0  0  0  0  0  0
    5.1894    9.4673   20.7118 C   0  0  0  0  0  0  0  0  0  0  0  0
    7.3773    8.8224   21.4870 C   0  0  0  0  0  0  0  0  0  0  0  0
    8.4391    6.6439   21.0235 C   0  0  0  0  0  0  0  0  0  0  0  0
    9.6494   11.1353   20.4167 C   0  0  0  0  0  0  0  0  0  0  0  0
    8.1431    7.6829   21.9046 C   0  0  0  0  0  0  0  0  0  0  0  0
    7.7796   10.1314   21.5115 N   0  0  0  0  0  0  0  0  0  0  0  0
    9.2768    5.6183   21.4437 C   0  0  0  0  0  0  0  0  0  0  0  0
    8.6315    7.7322   23.1768 C   0  0  0  0  0  0  0  0  0  0  0  0
   13.0537    9.9821   20.5781 C   0  0  0  0  0  0  0  0  0  0  0  0
   10.3850    4.6575   23.2386 O   0  0  0  0  0  0  0  0  0  0  0  0
    4.2069    6.8450   20.7994 C   0  0  0  0  0  0  0  0  0  0  0  0
    3.0726   10.1043   19.8522 O   0  0  0  0  0  0  0  0  0  0  0  0
    5.5057    7.1196   21.1155 C   0  0  0  0  0  0  0  0  0  0  0  0
    7.0367   11.0229   21.9948 O   0  0  0  0  0  0  0  0  0  0  0  0
  1  8  4  0
  1 12  4  0
  2  9  1  0
  2 11  4  0
  2 25  4  0
  3 12  4  0
  3 14  1  0
  3 23  4  0
  4 13  4  0
  4 21  4  0
  4 24  1  0
  5  8  4  0
  5 23  4  0
  6 18  2  0
  7 15  4  0
  7 16  1  0
  7 27  4  0
  8 18  1  0
 10 18  1  0
 10 20  1  0
 11 15  4  0
 11 26  1  0
 13 22  4  0
 16 19  1  0
 16 20  2  0
 17 19  4  0
 17 21  4  0
 19 22  4  0
 20 28  1  0
 25 27  4  0
M  END
$$$$

 Created by Python create_sdf_string function

 28 30  0  0  0  0  0  0  0  0999 V2000
   11.4592   11.2893   18.7941 C   0  0  0  0  0  0  0  0  0  0  0  0
    3.4202    7.9009   20.3866 C   0  0  0  0  0  0  0  0  0  0  0  0
   13.5280   10.3522   19.3586 C   0  0  0  0  0  0  0  0  0  0  0  0
    9.6923    5.6468   22.7891 C   0  0  0  0  0  0  0  0  0  0  0  0
   11.7756   10.2554   20.8841 N   0  0  0  0  0  0  0  0  0  0  0  0
    8.9876   11.9370   19.8757 O   0  0  0  0  0  0  0  0  0  0  0  0
    6.0167    8.4478   21.1089 C   0  0  0  0  0  0  0  0  0  0  0  0
   11.0002   10.8890   20.0262 C   0  0  0  0  0  0  0  0  0  0  0  0
    2.1721    7.7393   20.0315 O   0  0  0  0  0  0  0  0  0  0  0  0
    9.1107   10.3880   21.3769 N   0  0  0  0  0  0  0  0  0  0  0  0
    3.9102    9.2008   20.3124 C   0  0  0  0  0  0  0  0  0  0  0  0
   12.7292   10.9960   18.4597 C   0  0  0  0  0  0  0  0  0  0  0  0
    9.3798    6.6793   23.6625 C   0  0  0  0  0  0  0  0  0  0  0  0
   14.7425   10.0739   19.0802 O   0  0  0  0  0  0  0  0  0  0  0  0
    5.1894    9.4673   20.7118 C   0  0  0  0  0  0  0  0  0  0  0  0
    7.3773    8.8224   21.4870 C   0  0  0  0  0  0  0  0  0  0  0  0
    8.4391    6.6439   21.0235 C   0  0  0  0  0  0  0  0  0  0  0  0
    9.6494   11.1353   20.4167 C   0  0  0  0  0  0  0  0  0  0  0  0
    8.1431    7.6829   21.9046 C   0  0  0  0  0  0  0  0  0  0  0  0
    7.7796   10.1314   21.5115 N   0  0  0  0  0  0  0  0  0  0  0  0
    9.2768    5.6183   21.4437 C   0  0  0  0  0  0  0  0  0  0  0  0
    8.6315    7.7322   23.1768 C   0  0  0  0  0  0  0  0  0  0  0  0
   13.0537    9.9821   20.5781 C   0  0  0  0  0  0  0  0  0  0  0  0
   10.3850    4.6575   23.2386 O   0  0  0  0  0  0  0  0  0  0  0  0
    4.2069    6.8450   20.7994 C   0  0  0  0  0  0  0  0  0  0  0  0
    3.0726   10.1043   19.8522 O   0  0  0  0  0  0  0  0  0  0  0  0
    5.5057    7.1196   21.1155 C   0  0  0  0  0  0  0  0  0  0  0  0
    7.0367   11.0229   21.9948 O   0  0  0  0  0  0  0  0  0  0  0  0
  1  8  4  0
  1 12  4  0
  2  9  1  0
  2 11  4  0
  2 25  4  0
  3 12  4  0
  3 14  1  0
  3 23  4  0
  4 13  4  0
  4 21  4  0
  4 24  1  0
  5  8  4  0
  5 23  4  0
  6 18  2  0
  7 15  4  0
  7 16  1  0
  7 27  4  0
  8 18  1  0
 10 18  1  0
 10 20  1  0
 11 15  4  0
 11 26  1  0
 13 22  4  0
 16 19  1  0
 16 20  2  0
 17 19  4  0
 17 21  4  0
 19 22  4  0
 20 28  1  0
 25 27  4  0
M  END
$$$$

 Created by Python create_sdf_string function

 28 30  0  0  0  0  0  0  0  0999 V2000
   11.4592   11.2893   18.7941 C   0  0  0  0  0  0  0  0  0  0  0  0
    3.4202    7.9009   20.3866 C   0  0  0  0  0  0  0  0  0  0  0  0
   13.5280   10.3522   19.3586 C   0  0  0  0  0  0  0  0  0  0  0  0
    9.6923    5.6468   22.7891 C   0  0  0  0  0  0  0  0  0  0  0  0
   11.7756   10.2554   20.8841 N   0  0  0  0  0  0  0  0  0  0  0  0
    8.9876   11.9370   19.8757 O   0  0  0  0  0  0  0  0  0  0  0  0
    6.0167    8.4478   21.1089 C   0  0  0  0  0  0  0  0  0  0  0  0
   11.0002   10.8890   20.0262 C   0  0  0  0  0  0  0  0  0  0  0  0
    2.1721    7.7393   20.0315 O   0  0  0  0  0  0  0  0  0  0  0  0
    9.1107   10.3880   21.3769 N   0  0  0  0  0  0  0  0  0  0  0  0
    3.9102    9.2008   20.3124 C   0  0  0  0  0  0  0  0  0  0  0  0
   12.7292   10.9960   18.4597 C   0  0  0  0  0  0  0  0  0  0  0  0
    9.3798    6.6793   23.6625 C   0  0  0  0  0  0  0  0  0  0  0  0
   14.7425   10.0739   19.0802 O   0  0  0  0  0  0  0  0  0  0  0  0
    5.1894    9.4673   20.7118 C   0  0  0  0  0  0  0  0  0  0  0  0
    7.3773    8.8224   21.4870 C   0  0  0  0  0  0  0  0  0  0  0  0
    8.4391    6.6439   21.0235 C   0  0  0  0  0  0  0  0  0  0  0  0
    9.6494   11.1353   20.4167 C   0  0  0  0  0  0  0  0  0  0  0  0
    8.1431    7.6829   21.9046 C   0  0  0  0  0  0  0  0  0  0  0  0
    7.7796   10.1314   21.5115 N   0  0  0  0  0  0  0  0  0  0  0  0
    9.2768    5.6183   21.4437 C   0  0  0  0  0  0  0  0  0  0  0  0
    8.6315    7.7322   23.1768 C   0  0  0  0  0  0  0  0  0  0  0  0
   13.0537    9.9821   20.5781 C   0  0  0  0  0  0  0  0  0  0  0  0
   10.3850    4.6575   23.2386 O   0  0  0  0  0  0  0  0  0  0  0  0
    4.2069    6.8450   20.7994 C   0  0  0  0  0  0  0  0  0  0  0  0
    3.0726   10.1043   19.8522 O   0  0  0  0  0  0  0  0  0  0  0  0
    5.5057    7.1196   21.1155 C   0  0  0  0  0  0  0  0  0  0  0  0
    7.0367   11.0229   21.9948 O   0  0  0  0  0  0  0  0  0  0  0  0
  1  8  4  0
  1 12  4  0
  2  9  1  0
  2 11  4  0
  2 25  4  0
  3 12  4  0
  3 14  1  0
  3 23  4  0
  4 13  4  0
  4 21  4  0
  4 24  1  0
  5  8  4  0
  5 23  4  0
  6 18  2  0
  7 15  4  0
  7 16  1  0
  7 27  4  0
  8 18  1  0
 10 18  1  0
 10 20  1  0
 11 15  4  0
 11 26  1  0
 13 22  4  0
 16 19  1  0
 16 20  2  0
 17 19  4  0
 17 21  4  0
 19 22  4  0
 20 28  1  0
 25 27  4  0
M  END
$$$$

 Created by Python create_sdf_string function

 28 30  0  0  0  0  0  0  0  0999 V2000
   11.4592   11.2893   18.7941 C   0  0  0  0  0  0  0  0  0  0  0  0
    3.4202    7.9009   20.3866 C   0  0  0  0  0  0  0  0  0  0  0  0
   13.5280   10.3522   19.3586 C   0  0  0  0  0  0  0  0  0  0  0  0
    9.6923    5.6468   22.7891 C   0  0  0  0  0  0  0  0  0  0  0  0
   11.7756   10.2554   20.8841 N   0  0  0  0  0  0  0  0  0  0  0  0
    8.9876   11.9370   19.8757 O   0  0  0  0  0  0  0  0  0  0  0  0
    6.0167    8.4478   21.1089 C   0  0  0  0  0  0  0  0  0  0  0  0
   11.0002   10.8890   20.0262 C   0  0  0  0  0  0  0  0  0  0  0  0
    2.1721    7.7393   20.0315 O   0  0  0  0  0  0  0  0  0  0  0  0
    9.1107   10.3880   21.3769 N   0  0  0  0  0  0  0  0  0  0  0  0
    3.9102    9.2008   20.3124 C   0  0  0  0  0  0  0  0  0  0  0  0
   12.7292   10.9960   18.4597 C   0  0  0  0  0  0  0  0  0  0  0  0
    9.3798    6.6793   23.6625 C   0  0  0  0  0  0  0  0  0  0  0  0
   14.7425   10.0739   19.0802 O   0  0  0  0  0  0  0  0  0  0  0  0
    5.1894    9.4673   20.7118 C   0  0  0  0  0  0  0  0  0  0  0  0
    7.3773    8.8224   21.4870 C   0  0  0  0  0  0  0  0  0  0  0  0
    8.4391    6.6439   21.0235 C   0  0  0  0  0  0  0  0  0  0  0  0
    9.6494   11.1353   20.4167 C   0  0  0  0  0  0  0  0  0  0  0  0
    8.1431    7.6829   21.9046 C   0  0  0  0  0  0  0  0  0  0  0  0
    7.7796   10.1314   21.5115 N   0  0  0  0  0  0  0  0  0  0  0  0
    9.2768    5.6183   21.4437 C   0  0  0  0  0  0  0  0  0  0  0  0
    8.6315    7.7322   23.1768 C   0  0  0  0  0  0  0  0  0  0  0  0
   13.0537    9.9821   20.5781 C   0  0  0  0  0  0  0  0  0  0  0  0
   10.3850    4.6575   23.2386 O   0  0  0  0  0  0  0  0  0  0  0  0
    4.2069    6.8450   20.7994 C   0  0  0  0  0  0  0  0  0  0  0  0
    3.0726   10.1043   19.8522 O   0  0  0  0  0  0  0  0  0  0  0  0
    5.5057    7.1196   21.1155 C   0  0  0  0  0  0  0  0  0  0  0  0
    7.0367   11.0229   21.9948 O   0  0  0  0  0  0  0  0  0  0  0  0
  1  8  4  0
  1 12  4  0
  2  9  1  0
  2 11  4  0
  2 25  4  0
  3 12  4  0
  3 14  1  0
  3 23  4  0
  4 13  4  0
  4 21  4  0
  4 24  1  0
  5  8  4  0
  5 23  4  0
  6 18  2  0
  7 15  4  0
  7 16  1  0
  7 27  4  0
  8 18  1  0
 10 18  1  0
 10 20  1  0
 11 15  4  0
 11 26  1  0
 13 22  4  0
 16 19  1  0
 16 20  2  0
 17 19  4  0
 17 21  4  0
 19 22  4  0
 20 28  1  0
 25 27  4  0
M  END
$$$$

 Created by Python create_sdf_string function

 28 30  0  0  0  0  0  0  0  0999 V2000
   11.4592   11.2893   18.7941 C   0  0  0  0  0  0  0  0  0  0  0  0
    3.4202    7.9009   20.3866 C   0  0  0  0  0  0  0  0  0  0  0  0
   13.5280   10.3522   19.3586 C   0  0  0  0  0  0  0  0  0  0  0  0
    9.6923    5.6468   22.7891 C   0  0  0  0  0  0  0  0  0  0  0  0
   11.7756   10.2554   20.8841 N   0  0  0  0  0  0  0  0  0  0  0  0
    8.9876   11.9370   19.8757 O   0  0  0  0  0  0  0  0  0  0  0  0
    6.0167    8.4478   21.1089 C   0  0  0  0  0  0  0  0  0  0  0  0
   11.0002   10.8890   20.0262 C   0  0  0  0  0  0  0  0  0  0  0  0
    2.1721    7.7393   20.0315 O   0  0  0  0  0  0  0  0  0  0  0  0
    9.1107   10.3880   21.3769 N   0  0  0  0  0  0  0  0  0  0  0  0
    3.9102    9.2008   20.3124 C   0  0  0  0  0  0  0  0  0  0  0  0
   12.7292   10.9960   18.4597 C   0  0  0  0  0  0  0  0  0  0  0  0
    9.3798    6.6793   23.6625 C   0  0  0  0  0  0  0  0  0  0  0  0
   14.7425   10.0739   19.0802 O   0  0  0  0  0  0  0  0  0  0  0  0
    5.1894    9.4673   20.7118 C   0  0  0  0  0  0  0  0  0  0  0  0
    7.3773    8.8224   21.4870 C   0  0  0  0  0  0  0  0  0  0  0  0
    8.4391    6.6439   21.0235 C   0  0  0  0  0  0  0  0  0  0  0  0
    9.6494   11.1353   20.4167 C   0  0  0  0  0  0  0  0  0  0  0  0
    8.1431    7.6829   21.9046 C   0  0  0  0  0  0  0  0  0  0  0  0
    7.7796   10.1314   21.5115 N   0  0  0  0  0  0  0  0  0  0  0  0
    9.2768    5.6183   21.4437 C   0  0  0  0  0  0  0  0  0  0  0  0
    8.6315    7.7322   23.1768 C   0  0  0  0  0  0  0  0  0  0  0  0
   13.0537    9.9821   20.5781 C   0  0  0  0  0  0  0  0  0  0  0  0
   10.3850    4.6575   23.2386 O   0  0  0  0  0  0  0  0  0  0  0  0
    4.2069    6.8450   20.7994 C   0  0  0  0  0  0  0  0  0  0  0  0
    3.0726   10.1043   19.8522 O   0  0  0  0  0  0  0  0  0  0  0  0
    5.5057    7.1196   21.1155 C   0  0  0  0  0  0  0  0  0  0  0  0
    7.0367   11.0229   21.9948 O   0  0  0  0  0  0  0  0  0  0  0  0
  1  8  4  0
  1 12  4  0
  2  9  1  0
  2 11  4  0
  2 25  4  0
  3 12  4  0
  3 14  1  0
  3 23  4  0
  4 13  4  0
  4 21  4  0
  4 24  1  0
  5  8  4  0
  5 23  4  0
  6 18  2  0
  7 15  4  0
  7 16  1  0
  7 27  4  0
  8 18  1  0
 10 18  1  0
 10 20  1  0
 11 15  4  0
 11 26  1  0
 13 22  4  0
 16 19  1  0
 16 20  2  0
 17 19  4  0
 17 21  4  0
 19 22  4  0
 20 28  1  0
 25 27  4  0
M  END
$$$$

 Created by Python create_sdf_string function

 28 30  0  0  0  0  0  0  0  0999 V2000
   11.4592   11.2893   18.7941 C   0  0  0  0  0  0  0  0  0  0  0  0
    3.4202    7.9009   20.3866 C   0  0  0  0  0  0  0  0  0  0  0  0
   13.5280   10.3522   19.3586 C   0  0  0  0  0  0  0  0  0  0  0  0
    9.6923    5.6468   22.7891 C   0  0  0  0  0  0  0  0  0  0  0  0
   11.7756   10.2554   20.8841 N   0  0  0  0  0  0  0  0  0  0  0  0
    8.9876   11.9370   19.8757 O   0  0  0  0  0  0  0  0  0  0  0  0
    6.0167    8.4478   21.1089 C   0  0  0  0  0  0  0  0  0  0  0  0
   11.0002   10.8890   20.0262 C   0  0  0  0  0  0  0  0  0  0  0  0
    2.1721    7.7393   20.0315 O   0  0  0  0  0  0  0  0  0  0  0  0
    9.1107   10.3880   21.3769 N   0  0  0  0  0  0  0  0  0  0  0  0
    3.9102    9.2008   20.3124 C   0  0  0  0  0  0  0  0  0  0  0  0
   12.7292   10.9960   18.4597 C   0  0  0  0  0  0  0  0  0  0  0  0
    9.3798    6.6793   23.6625 C   0  0  0  0  0  0  0  0  0  0  0  0
   14.7425   10.0739   19.0802 O   0  0  0  0  0  0  0  0  0  0  0  0
    5.1894    9.4673   20.7118 C   0  0  0  0  0  0  0  0  0  0  0  0
    7.3773    8.8224   21.4870 C   0  0  0  0  0  0  0  0  0  0  0  0
    8.4391    6.6439   21.0235 C   0  0  0  0  0  0  0  0  0  0  0  0
    9.6494   11.1353   20.4167 C   0  0  0  0  0  0  0  0  0  0  0  0
    8.1431    7.6829   21.9046 C   0  0  0  0  0  0  0  0  0  0  0  0
    7.7796   10.1314   21.5115 N   0  0  0  0  0  0  0  0  0  0  0  0
    9.2768    5.6183   21.4437 C   0  0  0  0  0  0  0  0  0  0  0  0
    8.6315    7.7322   23.1768 C   0  0  0  0  0  0  0  0  0  0  0  0
   13.0537    9.9821   20.5781 C   0  0  0  0  0  0  0  0  0  0  0  0
   10.3850    4.6575   23.2386 O   0  0  0  0  0  0  0  0  0  0  0  0
    4.2069    6.8450   20.7994 C   0  0  0  0  0  0  0  0  0  0  0  0
    3.0726   10.1043   19.8522 O   0  0  0  0  0  0  0  0  0  0  0  0
    5.5057    7.1196   21.1155 C   0  0  0  0  0  0  0  0  0  0  0  0
    7.0367   11.0229   21.9948 O   0  0  0  0  0  0  0  0  0  0  0  0
  1  8  4  0
  1 12  4  0
  2  9  1  0
  2 11  4  0
  2 25  4  0
  3 12  4  0
  3 14  1  0
  3 23  4  0
  4 13  4  0
  4 21  4  0
  4 24  1  0
  5  8  4  0
  5 23  4  0
  6 18  2  0
  7 15  4  0
  7 16  1  0
  7 27  4  0
  8 18  1  0
 10 18  1  0
 10 20  1  0
 11 15  4  0
 11 26  1  0
 13 22  4  0
 16 19  1  0
 16 20  2  0
 17 19  4  0
 17 21  4  0
 19 22  4  0
 20 28  1  0
 25 27  4  0
M  END
$$$$

 Created by Python create_sdf_string function

 28 30  0  0  0  0  0  0  0  0999 V2000
   11.4592   11.2893   18.7941 C   0  0  0  0  0  0  0  0  0  0  0  0
    3.4202    7.9009   20.3866 C   0  0  0  0  0  0  0  0  0  0  0  0
   13.5280   10.3522   19.3586 C   0  0  0  0  0  0  0  0  0  0  0  0
    9.6923    5.6468   22.7891 C   0  0  0  0  0  0  0  0  0  0  0  0
   11.7756   10.2554   20.8841 N   0  0  0  0  0  0  0  0  0  0  0  0
    8.9876   11.9370   19.8757 O   0  0  0  0  0  0  0  0  0  0  0  0
    6.0167    8.4478   21.1089 C   0  0  0  0  0  0  0  0  0  0  0  0
   11.0002   10.8890   20.0262 C   0  0  0  0  0  0  0  0  0  0  0  0
    2.1721    7.7393   20.0315 O   0  0  0  0  0  0  0  0  0  0  0  0
    9.1107   10.3880   21.3769 N   0  0  0  0  0  0  0  0  0  0  0  0
    3.9102    9.2008   20.3124 C   0  0  0  0  0  0  0  0  0  0  0  0
   12.7292   10.9960   18.4597 C   0  0  0  0  0  0  0  0  0  0  0  0
    9.3798    6.6793   23.6625 C   0  0  0  0  0  0  0  0  0  0  0  0
   14.7425   10.0739   19.0802 O   0  0  0  0  0  0  0  0  0  0  0  0
    5.1894    9.4673   20.7118 C   0  0  0  0  0  0  0  0  0  0  0  0
    7.3773    8.8224   21.4870 C   0  0  0  0  0  0  0  0  0  0  0  0
    8.4391    6.6439   21.0235 C   0  0  0  0  0  0  0  0  0  0  0  0
    9.6494   11.1353   20.4167 C   0  0  0  0  0  0  0  0  0  0  0  0
    8.1431    7.6829   21.9046 C   0  0  0  0  0  0  0  0  0  0  0  0
    7.7796   10.1314   21.5115 N   0  0  0  0  0  0  0  0  0  0  0  0
    9.2768    5.6183   21.4437 C   0  0  0  0  0  0  0  0  0  0  0  0
    8.6315    7.7322   23.1768 C   0  0  0  0  0  0  0  0  0  0  0  0
   13.0537    9.9821   20.5781 C   0  0  0  0  0  0  0  0  0  0  0  0
   10.3850    4.6575   23.2386 O   0  0  0  0  0  0  0  0  0  0  0  0
    4.2069    6.8450   20.7994 C   0  0  0  0  0  0  0  0  0  0  0  0
    3.0726   10.1043   19.8522 O   0  0  0  0  0  0  0  0  0  0  0  0
    5.5057    7.1196   21.1155 C   0  0  0  0  0  0  0  0  0  0  0  0
    7.0367   11.0229   21.9948 O   0  0  0  0  0  0  0  0  0  0  0  0
  1  8  4  0
  1 12  4  0
  2  9  1  0
  2 11  4  0
  2 25  4  0
  3 12  4  0
  3 14  1  0
  3 23  4  0
  4 13  4  0
  4 21  4  0
  4 24  1  0
  5  8  4  0
  5 23  4  0
  6 18  2  0
  7 15  4  0
  7 16  1  0
  7 27  4  0
  8 18  1  0
 10 18  1  0
 10 20  1  0
 11 15  4  0
 11 26  1  0
 13 22  4  0
 16 19  1  0
 16 20  2  0
 17 19  4  0
 17 21  4  0
 19 22  4  0
 20 28  1  0
 25 27  4  0
M  END
$$$$

 Created by Python create_sdf_string function

 28 30  0  0  0  0  0  0  0  0999 V2000
   11.4592   11.2893   18.7941 C   0  0  0  0  0  0  0  0  0  0  0  0
    3.4202    7.9009   20.3866 C   0  0  0  0  0  0  0  0  0  0  0  0
   13.5280   10.3522   19.3586 C   0  0  0  0  0  0  0  0  0  0  0  0
    9.6923    5.6468   22.7891 C   0  0  0  0  0  0  0  0  0  0  0  0
   11.7756   10.2554   20.8841 N   0  0  0  0  0  0  0  0  0  0  0  0
    8.9876   11.9370   19.8757 O   0  0  0  0  0  0  0  0  0  0  0  0
    6.0167    8.4478   21.1089 C   0  0  0  0  0  0  0  0  0  0  0  0
   11.0002   10.8890   20.0262 C   0  0  0  0  0  0  0  0  0  0  0  0
    2.1721    7.7393   20.0315 O   0  0  0  0  0  0  0  0  0  0  0  0
    9.1107   10.3880   21.3769 N   0  0  0  0  0  0  0  0  0  0  0  0
    3.9102    9.2008   20.3124 C   0  0  0  0  0  0  0  0  0  0  0  0
   12.7292   10.9960   18.4597 C   0  0  0  0  0  0  0  0  0  0  0  0
    9.3798    6.6793   23.6625 C   0  0  0  0  0  0  0  0  0  0  0  0
   14.7425   10.0739   19.0802 O   0  0  0  0  0  0  0  0  0  0  0  0
    5.1894    9.4673   20.7118 C   0  0  0  0  0  0  0  0  0  0  0  0
    7.3773    8.8224   21.4870 C   0  0  0  0  0  0  0  0  0  0  0  0
    8.4391    6.6439   21.0235 C   0  0  0  0  0  0  0  0  0  0  0  0
    9.6494   11.1353   20.4167 C   0  0  0  0  0  0  0  0  0  0  0  0
    8.1431    7.6829   21.9046 C   0  0  0  0  0  0  0  0  0  0  0  0
    7.7796   10.1314   21.5115 N   0  0  0  0  0  0  0  0  0  0  0  0
    9.2768    5.6183   21.4437 C   0  0  0  0  0  0  0  0  0  0  0  0
    8.6315    7.7322   23.1768 C   0  0  0  0  0  0  0  0  0  0  0  0
   13.0537    9.9821   20.5781 C   0  0  0  0  0  0  0  0  0  0  0  0
   10.3850    4.6575   23.2386 O   0  0  0  0  0  0  0  0  0  0  0  0
    4.2069    6.8450   20.7994 C   0  0  0  0  0  0  0  0  0  0  0  0
    3.0726   10.1043   19.8522 O   0  0  0  0  0  0  0  0  0  0  0  0
    5.5057    7.1196   21.1155 C   0  0  0  0  0  0  0  0  0  0  0  0
    7.0367   11.0229   21.9948 O   0  0  0  0  0  0  0  0  0  0  0  0
  1  8  4  0
  1 12  4  0
  2  9  1  0
  2 11  4  0
  2 25  4  0
  3 12  4  0
  3 14  1  0
  3 23  4  0
  4 13  4  0
  4 21  4  0
  4 24  1  0
  5  8  4  0
  5 23  4  0
  6 18  2  0
  7 15  4  0
  7 16  1  0
  7 27  4  0
  8 18  1  0
 10 18  1  0
 10 20  1  0
 11 15  4  0
 11 26  1  0
 13 22  4  0
 16 19  1  0
 16 20  2  0
 17 19  4  0
 17 21  4  0
 19 22  4  0
 20 28  1  0
 25 27  4  0
M  END
$$$$

 Created by Python create_sdf_string function

 28 30  0  0  0  0  0  0  0  0999 V2000
   11.4592   11.2893   18.7941 C   0  0  0  0  0  0  0  0  0  0  0  0
    3.4202    7.9009   20.3866 C   0  0  0  0  0  0  0  0  0  0  0  0
   13.5280   10.3522   19.3586 C   0  0  0  0  0  0  0  0  0  0  0  0
    9.6923    5.6468   22.7891 C   0  0  0  0  0  0  0  0  0  0  0  0
   11.7756   10.2554   20.8841 N   0  0  0  0  0  0  0  0  0  0  0  0
    8.9876   11.9370   19.8757 O   0  0  0  0  0  0  0  0  0  0  0  0
    6.0167    8.4478   21.1089 C   0  0  0  0  0  0  0  0  0  0  0  0
   11.0002   10.8890   20.0262 C   0  0  0  0  0  0  0  0  0  0  0  0
    2.1721    7.7393   20.0315 O   0  0  0  0  0  0  0  0  0  0  0  0
    9.1107   10.3880   21.3769 N   0  0  0  0  0  0  0  0  0  0  0  0
    3.9102    9.2008   20.3124 C   0  0  0  0  0  0  0  0  0  0  0  0
   12.7292   10.9960   18.4597 C   0  0  0  0  0  0  0  0  0  0  0  0
    9.3798    6.6793   23.6625 C   0  0  0  0  0  0  0  0  0  0  0  0
   14.7425   10.0739   19.0802 O   0  0  0  0  0  0  0  0  0  0  0  0
    5.1894    9.4673   20.7118 C   0  0  0  0  0  0  0  0  0  0  0  0
    7.3773    8.8224   21.4870 C   0  0  0  0  0  0  0  0  0  0  0  0
    8.4391    6.6439   21.0235 C   0  0  0  0  0  0  0  0  0  0  0  0
    9.6494   11.1353   20.4167 C   0  0  0  0  0  0  0  0  0  0  0  0
    8.1431    7.6829   21.9046 C   0  0  0  0  0  0  0  0  0  0  0  0
    7.7796   10.1314   21.5115 N   0  0  0  0  0  0  0  0  0  0  0  0
    9.2768    5.6183   21.4437 C   0  0  0  0  0  0  0  0  0  0  0  0
    8.6315    7.7322   23.1768 C   0  0  0  0  0  0  0  0  0  0  0  0
   13.0537    9.9821   20.5781 C   0  0  0  0  0  0  0  0  0  0  0  0
   10.3850    4.6575   23.2386 O   0  0  0  0  0  0  0  0  0  0  0  0
    4.2069    6.8450   20.7994 C   0  0  0  0  0  0  0  0  0  0  0  0
    3.0726   10.1043   19.8522 O   0  0  0  0  0  0  0  0  0  0  0  0
    5.5057    7.1196   21.1155 C   0  0  0  0  0  0  0  0  0  0  0  0
    7.0367   11.0229   21.9948 O   0  0  0  0  0  0  0  0  0  0  0  0
  1  8  4  0
  1 12  4  0
  2  9  1  0
  2 11  4  0
  2 25  4  0
  3 12  4  0
  3 14  1  0
  3 23  4  0
  4 13  4  0
  4 21  4  0
  4 24  1  0
  5  8  4  0
  5 23  4  0
  6 18  2  0
  7 15  4  0
  7 16  1  0
  7 27  4  0
  8 18  1  0
 10 18  1  0
 10 20  1  0
 11 15  4  0
 11 26  1  0
 13 22  4  0
 16 19  1  0
 16 20  2  0
 17 19  4  0
 17 21  4  0
 19 22  4  0
 20 28  1  0
 25 27  4  0
M  END
$$$$

 Created by Python create_sdf_string function

 28 30  0  0  0  0  0  0  0  0999 V2000
   11.4592   11.2893   18.7941 C   0  0  0  0  0  0  0  0  0  0  0  0
    3.4202    7.9009   20.3866 C   0  0  0  0  0  0  0  0  0  0  0  0
   13.5280   10.3522   19.3586 C   0  0  0  0  0  0  0  0  0  0  0  0
    9.6923    5.6468   22.7891 C   0  0  0  0  0  0  0  0  0  0  0  0
   11.7756   10.2554   20.8841 N   0  0  0  0  0  0  0  0  0  0  0  0
    8.9876   11.9370   19.8757 O   0  0  0  0  0  0  0  0  0  0  0  0
    6.0167    8.4478   21.1089 C   0  0  0  0  0  0  0  0  0  0  0  0
   11.0002   10.8890   20.0262 C   0  0  0  0  0  0  0  0  0  0  0  0
    2.1721    7.7393   20.0315 O   0  0  0  0  0  0  0  0  0  0  0  0
    9.1107   10.3880   21.3769 N   0  0  0  0  0  0  0  0  0  0  0  0
    3.9102    9.2008   20.3124 C   0  0  0  0  0  0  0  0  0  0  0  0
   12.7292   10.9960   18.4597 C   0  0  0  0  0  0  0  0  0  0  0  0
    9.3798    6.6793   23.6625 C   0  0  0  0  0  0  0  0  0  0  0  0
   14.7425   10.0739   19.0802 O   0  0  0  0  0  0  0  0  0  0  0  0
    5.1894    9.4673   20.7118 C   0  0  0  0  0  0  0  0  0  0  0  0
    7.3773    8.8224   21.4870 C   0  0  0  0  0  0  0  0  0  0  0  0
    8.4391    6.6439   21.0235 C   0  0  0  0  0  0  0  0  0  0  0  0
    9.6494   11.1353   20.4167 C   0  0  0  0  0  0  0  0  0  0  0  0
    8.1431    7.6829   21.9046 C   0  0  0  0  0  0  0  0  0  0  0  0
    7.7796   10.1314   21.5115 N   0  0  0  0  0  0  0  0  0  0  0  0
    9.2768    5.6183   21.4437 C   0  0  0  0  0  0  0  0  0  0  0  0
    8.6315    7.7322   23.1768 C   0  0  0  0  0  0  0  0  0  0  0  0
   13.0537    9.9821   20.5781 C   0  0  0  0  0  0  0  0  0  0  0  0
   10.3850    4.6575   23.2386 O   0  0  0  0  0  0  0  0  0  0  0  0
    4.2069    6.8450   20.7994 C   0  0  0  0  0  0  0  0  0  0  0  0
    3.0726   10.1043   19.8522 O   0  0  0  0  0  0  0  0  0  0  0  0
    5.5057    7.1196   21.1155 C   0  0  0  0  0  0  0  0  0  0  0  0
    7.0367   11.0229   21.9948 O   0  0  0  0  0  0  0  0  0  0  0  0
  1  8  4  0
  1 12  4  0
  2  9  1  0
  2 11  4  0
  2 25  4  0
  3 12  4  0
  3 14  1  0
  3 23  4  0
  4 13  4  0
  4 21  4  0
  4 24  1  0
  5  8  4  0
  5 23  4  0
  6 18  2  0
  7 15  4  0
  7 16  1  0
  7 27  4  0
  8 18  1  0
 10 18  1  0
 10 20  1  0
 11 15  4  0
 11 26  1  0
 13 22  4  0
 16 19  1  0
 16 20  2  0
 17 19  4  0
 17 21  4  0
 19 22  4  0
 20 28  1  0
 25 27  4  0
M  END
$$$$

 Created by Python create_sdf_string function

 28 30  0  0  0  0  0  0  0  0999 V2000
   11.4592   11.2893   18.7941 C   0  0  0  0  0  0  0  0  0  0  0  0
    3.4202    7.9009   20.3866 C   0  0  0  0  0  0  0  0  0  0  0  0
   13.5280   10.3522   19.3586 C   0  0  0  0  0  0  0  0  0  0  0  0
    9.6923    5.6468   22.7891 C   0  0  0  0  0  0  0  0  0  0  0  0
   11.7756   10.2554   20.8841 N   0  0  0  0  0  0  0  0  0  0  0  0
    8.9876   11.9370   19.8757 O   0  0  0  0  0  0  0  0  0  0  0  0
    6.0167    8.4478   21.1089 C   0  0  0  0  0  0  0  0  0  0  0  0
   11.0002   10.8890   20.0262 C   0  0  0  0  0  0  0  0  0  0  0  0
    2.1721    7.7393   20.0315 O   0  0  0  0  0  0  0  0  0  0  0  0
    9.1107   10.3880   21.3769 N   0  0  0  0  0  0  0  0  0  0  0  0
    3.9102    9.2008   20.3124 C   0  0  0  0  0  0  0  0  0  0  0  0
   12.7292   10.9960   18.4597 C   0  0  0  0  0  0  0  0  0  0  0  0
    9.3798    6.6793   23.6625 C   0  0  0  0  0  0  0  0  0  0  0  0
   14.7425   10.0739   19.0802 O   0  0  0  0  0  0  0  0  0  0  0  0
    5.1894    9.4673   20.7118 C   0  0  0  0  0  0  0  0  0  0  0  0
    7.3773    8.8224   21.4870 C   0  0  0  0  0  0  0  0  0  0  0  0
    8.4391    6.6439   21.0235 C   0  0  0  0  0  0  0  0  0  0  0  0
    9.6494   11.1353   20.4167 C   0  0  0  0  0  0  0  0  0  0  0  0
    8.1431    7.6829   21.9046 C   0  0  0  0  0  0  0  0  0  0  0  0
    7.7796   10.1314   21.5115 N   0  0  0  0  0  0  0  0  0  0  0  0
    9.2768    5.6183   21.4437 C   0  0  0  0  0  0  0  0  0  0  0  0
    8.6315    7.7322   23.1768 C   0  0  0  0  0  0  0  0  0  0  0  0
   13.0537    9.9821   20.5781 C   0  0  0  0  0  0  0  0  0  0  0  0
   10.3850    4.6575   23.2386 O   0  0  0  0  0  0  0  0  0  0  0  0
    4.2069    6.8450   20.7994 C   0  0  0  0  0  0  0  0  0  0  0  0
    3.0726   10.1043   19.8522 O   0  0  0  0  0  0  0  0  0  0  0  0
    5.5057    7.1196   21.1155 C   0  0  0  0  0  0  0  0  0  0  0  0
    7.0367   11.0229   21.9948 O   0  0  0  0  0  0  0  0  0  0  0  0
  1  8  4  0
  1 12  4  0
  2  9  1  0
  2 11  4  0
  2 25  4  0
  3 12  4  0
  3 14  1  0
  3 23  4  0
  4 13  4  0
  4 21  4  0
  4 24  1  0
  5  8  4  0
  5 23  4  0
  6 18  2  0
  7 15  4  0
  7 16  1  0
  7 27  4  0
  8 18  1  0
 10 18  1  0
 10 20  1  0
 11 15  4  0
 11 26  1  0
 13 22  4  0
 16 19  1  0
 16 20  2  0
 17 19  4  0
 17 21  4  0
 19 22  4  0
 20 28  1  0
 25 27  4  0
M  END
$$$$

 Created by Python create_sdf_string function

 28 30  0  0  0  0  0  0  0  0999 V2000
   11.4592   11.2893   18.7941 C   0  0  0  0  0  0  0  0  0  0  0  0
    3.4202    7.9009   20.3866 C   0  0  0  0  0  0  0  0  0  0  0  0
   13.5280   10.3522   19.3586 C   0  0  0  0  0  0  0  0  0  0  0  0
    9.6923    5.6468   22.7891 C   0  0  0  0  0  0  0  0  0  0  0  0
   11.7756   10.2554   20.8841 N   0  0  0  0  0  0  0  0  0  0  0  0
    8.9876   11.9370   19.8757 O   0  0  0  0  0  0  0  0  0  0  0  0
    6.0167    8.4478   21.1089 C   0  0  0  0  0  0  0  0  0  0  0  0
   11.0002   10.8890   20.0262 C   0  0  0  0  0  0  0  0  0  0  0  0
    2.1721    7.7393   20.0315 O   0  0  0  0  0  0  0  0  0  0  0  0
    9.1107   10.3880   21.3769 N   0  0  0  0  0  0  0  0  0  0  0  0
    3.9102    9.2008   20.3124 C   0  0  0  0  0  0  0  0  0  0  0  0
   12.7292   10.9960   18.4597 C   0  0  0  0  0  0  0  0  0  0  0  0
    9.3798    6.6793   23.6625 C   0  0  0  0  0  0  0  0  0  0  0  0
   14.7425   10.0739   19.0802 O   0  0  0  0  0  0  0  0  0  0  0  0
    5.1894    9.4673   20.7118 C   0  0  0  0  0  0  0  0  0  0  0  0
    7.3773    8.8224   21.4870 C   0  0  0  0  0  0  0  0  0  0  0  0
    8.4391    6.6439   21.0235 C   0  0  0  0  0  0  0  0  0  0  0  0
    9.6494   11.1353   20.4167 C   0  0  0  0  0  0  0  0  0  0  0  0
    8.1431    7.6829   21.9046 C   0  0  0  0  0  0  0  0  0  0  0  0
    7.7796   10.1314   21.5115 N   0  0  0  0  0  0  0  0  0  0  0  0
    9.2768    5.6183   21.4437 C   0  0  0  0  0  0  0  0  0  0  0  0
    8.6315    7.7322   23.1768 C   0  0  0  0  0  0  0  0  0  0  0  0
   13.0537    9.9821   20.5781 C   0  0  0  0  0  0  0  0  0  0  0  0
   10.3850    4.6575   23.2386 O   0  0  0  0  0  0  0  0  0  0  0  0
    4.2069    6.8450   20.7994 C   0  0  0  0  0  0  0  0  0  0  0  0
    3.0726   10.1043   19.8522 O   0  0  0  0  0  0  0  0  0  0  0  0
    5.5057    7.1196   21.1155 C   0  0  0  0  0  0  0  0  0  0  0  0
    7.0367   11.0229   21.9948 O   0  0  0  0  0  0  0  0  0  0  0  0
  1  8  4  0
  1 12  4  0
  2  9  1  0
  2 11  4  0
  2 25  4  0
  3 12  4  0
  3 14  1  0
  3 23  4  0
  4 13  4  0
  4 21  4  0
  4 24  1  0
  5  8  4  0
  5 23  4  0
  6 18  2  0
  7 15  4  0
  7 16  1  0
  7 27  4  0
  8 18  1  0
 10 18  1  0
 10 20  1  0
 11 15  4  0
 11 26  1  0
 13 22  4  0
 16 19  1  0
 16 20  2  0
 17 19  4  0
 17 21  4  0
 19 22  4  0
 20 28  1  0
 25 27  4  0
M  END
$$$$

 Created by Python create_sdf_string function

 28 30  0  0  0  0  0  0  0  0999 V2000
   11.4592   11.2893   18.7941 C   0  0  0  0  0  0  0  0  0  0  0  0
    3.4202    7.9009   20.3866 C   0  0  0  0  0  0  0  0  0  0  0  0
   13.5280   10.3522   19.3586 C   0  0  0  0  0  0  0  0  0  0  0  0
    9.6923    5.6468   22.7891 C   0  0  0  0  0  0  0  0  0  0  0  0
   11.7756   10.2554   20.8841 N   0  0  0  0  0  0  0  0  0  0  0  0
    8.9876   11.9370   19.8757 O   0  0  0  0  0  0  0  0  0  0  0  0
    6.0167    8.4478   21.1089 C   0  0  0  0  0  0  0  0  0  0  0  0
   11.0002   10.8890   20.0262 C   0  0  0  0  0  0  0  0  0  0  0  0
    2.1721    7.7393   20.0315 O   0  0  0  0  0  0  0  0  0  0  0  0
    9.1107   10.3880   21.3769 N   0  0  0  0  0  0  0  0  0  0  0  0
    3.9102    9.2008   20.3124 C   0  0  0  0  0  0  0  0  0  0  0  0
   12.7292   10.9960   18.4597 C   0  0  0  0  0  0  0  0  0  0  0  0
    9.3798    6.6793   23.6625 C   0  0  0  0  0  0  0  0  0  0  0  0
   14.7425   10.0739   19.0802 O   0  0  0  0  0  0  0  0  0  0  0  0
    5.1894    9.4673   20.7118 C   0  0  0  0  0  0  0  0  0  0  0  0
    7.3773    8.8224   21.4870 C   0  0  0  0  0  0  0  0  0  0  0  0
    8.4391    6.6439   21.0235 C   0  0  0  0  0  0  0  0  0  0  0  0
    9.6494   11.1353   20.4167 C   0  0  0  0  0  0  0  0  0  0  0  0
    8.1431    7.6829   21.9046 C   0  0  0  0  0  0  0  0  0  0  0  0
    7.7796   10.1314   21.5115 N   0  0  0  0  0  0  0  0  0  0  0  0
    9.2768    5.6183   21.4437 C   0  0  0  0  0  0  0  0  0  0  0  0
    8.6315    7.7322   23.1768 C   0  0  0  0  0  0  0  0  0  0  0  0
   13.0537    9.9821   20.5781 C   0  0  0  0  0  0  0  0  0  0  0  0
   10.3850    4.6575   23.2386 O   0  0  0  0  0  0  0  0  0  0  0  0
    4.2069    6.8450   20.7994 C   0  0  0  0  0  0  0  0  0  0  0  0
    3.0726   10.1043   19.8522 O   0  0  0  0  0  0  0  0  0  0  0  0
    5.5057    7.1196   21.1155 C   0  0  0  0  0  0  0  0  0  0  0  0
    7.0367   11.0229   21.9948 O   0  0  0  0  0  0  0  0  0  0  0  0
  1  8  4  0
  1 12  4  0
  2  9  1  0
  2 11  4  0
  2 25  4  0
  3 12  4  0
  3 14  1  0
  3 23  4  0
  4 13  4  0
  4 21  4  0
  4 24  1  0
  5  8  4  0
  5 23  4  0
  6 18  2  0
  7 15  4  0
  7 16  1  0
  7 27  4  0
  8 18  1  0
 10 18  1  0
 10 20  1  0
 11 15  4  0
 11 26  1  0
 13 22  4  0
 16 19  1  0
 16 20  2  0
 17 19  4  0
 17 21  4  0
 19 22  4  0
 20 28  1  0
 25 27  4  0
M  END
$$$$

 Created by Python create_sdf_string function

 28 30  0  0  0  0  0  0  0  0999 V2000
   11.4592   11.2893   18.7941 C   0  0  0  0  0  0  0  0  0  0  0  0
    3.4202    7.9009   20.3866 C   0  0  0  0  0  0  0  0  0  0  0  0
   13.5280   10.3522   19.3586 C   0  0  0  0  0  0  0  0  0  0  0  0
    9.6923    5.6468   22.7891 C   0  0  0  0  0  0  0  0  0  0  0  0
   11.7756   10.2554   20.8841 N   0  0  0  0  0  0  0  0  0  0  0  0
    8.9876   11.9370   19.8757 O   0  0  0  0  0  0  0  0  0  0  0  0
    6.0167    8.4478   21.1089 C   0  0  0  0  0  0  0  0  0  0  0  0
   11.0002   10.8890   20.0262 C   0  0  0  0  0  0  0  0  0  0  0  0
    2.1721    7.7393   20.0315 O   0  0  0  0  0  0  0  0  0  0  0  0
    9.1107   10.3880   21.3769 N   0  0  0  0  0  0  0  0  0  0  0  0
    3.9102    9.2008   20.3124 C   0  0  0  0  0  0  0  0  0  0  0  0
   12.7292   10.9960   18.4597 C   0  0  0  0  0  0  0  0  0  0  0  0
    9.3798    6.6793   23.6625 C   0  0  0  0  0  0  0  0  0  0  0  0
   14.7425   10.0739   19.0802 O   0  0  0  0  0  0  0  0  0  0  0  0
    5.1894    9.4673   20.7118 C   0  0  0  0  0  0  0  0  0  0  0  0
    7.3773    8.8224   21.4870 C   0  0  0  0  0  0  0  0  0  0  0  0
    8.4391    6.6439   21.0235 C   0  0  0  0  0  0  0  0  0  0  0  0
    9.6494   11.1353   20.4167 C   0  0  0  0  0  0  0  0  0  0  0  0
    8.1431    7.6829   21.9046 C   0  0  0  0  0  0  0  0  0  0  0  0
    7.7796   10.1314   21.5115 N   0  0  0  0  0  0  0  0  0  0  0  0
    9.2768    5.6183   21.4437 C   0  0  0  0  0  0  0  0  0  0  0  0
    8.6315    7.7322   23.1768 C   0  0  0  0  0  0  0  0  0  0  0  0
   13.0537    9.9821   20.5781 C   0  0  0  0  0  0  0  0  0  0  0  0
   10.3850    4.6575   23.2386 O   0  0  0  0  0  0  0  0  0  0  0  0
    4.2069    6.8450   20.7994 C   0  0  0  0  0  0  0  0  0  0  0  0
    3.0726   10.1043   19.8522 O   0  0  0  0  0  0  0  0  0  0  0  0
    5.5057    7.1196   21.1155 C   0  0  0  0  0  0  0  0  0  0  0  0
    7.0367   11.0229   21.9948 O   0  0  0  0  0  0  0  0  0  0  0  0
  1  8  4  0
  1 12  4  0
  2  9  1  0
  2 11  4  0
  2 25  4  0
  3 12  4  0
  3 14  1  0
  3 23  4  0
  4 13  4  0
  4 21  4  0
  4 24  1  0
  5  8  4  0
  5 23  4  0
  6 18  2  0
  7 15  4  0
  7 16  1  0
  7 27  4  0
  8 18  1  0
 10 18  1  0
 10 20  1  0
 11 15  4  0
 11 26  1  0
 13 22  4  0
 16 19  1  0
 16 20  2  0
 17 19  4  0
 17 21  4  0
 19 22  4  0
 20 28  1  0
 25 27  4  0
M  END
$$$$

 Created by Python create_sdf_string function

 28 30  0  0  0  0  0  0  0  0999 V2000
   11.4592   11.2893   18.7941 C   0  0  0  0  0  0  0  0  0  0  0  0
    3.4202    7.9009   20.3866 C   0  0  0  0  0  0  0  0  0  0  0  0
   13.5280   10.3522   19.3586 C   0  0  0  0  0  0  0  0  0  0  0  0
    9.6923    5.6468   22.7891 C   0  0  0  0  0  0  0  0  0  0  0  0
   11.7756   10.2554   20.8841 N   0  0  0  0  0  0  0  0  0  0  0  0
    8.9876   11.9370   19.8757 O   0  0  0  0  0  0  0  0  0  0  0  0
    6.0167    8.4478   21.1089 C   0  0  0  0  0  0  0  0  0  0  0  0
   11.0002   10.8890   20.0262 C   0  0  0  0  0  0  0  0  0  0  0  0
    2.1721    7.7393   20.0315 O   0  0  0  0  0  0  0  0  0  0  0  0
    9.1107   10.3880   21.3769 N   0  0  0  0  0  0  0  0  0  0  0  0
    3.9102    9.2008   20.3124 C   0  0  0  0  0  0  0  0  0  0  0  0
   12.7292   10.9960   18.4597 C   0  0  0  0  0  0  0  0  0  0  0  0
    9.3798    6.6793   23.6625 C   0  0  0  0  0  0  0  0  0  0  0  0
   14.7425   10.0739   19.0802 O   0  0  0  0  0  0  0  0  0  0  0  0
    5.1894    9.4673   20.7118 C   0  0  0  0  0  0  0  0  0  0  0  0
    7.3773    8.8224   21.4870 C   0  0  0  0  0  0  0  0  0  0  0  0
    8.4391    6.6439   21.0235 C   0  0  0  0  0  0  0  0  0  0  0  0
    9.6494   11.1353   20.4167 C   0  0  0  0  0  0  0  0  0  0  0  0
    8.1431    7.6829   21.9046 C   0  0  0  0  0  0  0  0  0  0  0  0
    7.7796   10.1314   21.5115 N   0  0  0  0  0  0  0  0  0  0  0  0
    9.2768    5.6183   21.4437 C   0  0  0  0  0  0  0  0  0  0  0  0
    8.6315    7.7322   23.1768 C   0  0  0  0  0  0  0  0  0  0  0  0
   13.0537    9.9821   20.5781 C   0  0  0  0  0  0  0  0  0  0  0  0
   10.3850    4.6575   23.2386 O   0  0  0  0  0  0  0  0  0  0  0  0
    4.2069    6.8450   20.7994 C   0  0  0  0  0  0  0  0  0  0  0  0
    3.0726   10.1043   19.8522 O   0  0  0  0  0  0  0  0  0  0  0  0
    5.5057    7.1196   21.1155 C   0  0  0  0  0  0  0  0  0  0  0  0
    7.0367   11.0229   21.9948 O   0  0  0  0  0  0  0  0  0  0  0  0
  1  8  4  0
  1 12  4  0
  2  9  1  0
  2 11  4  0
  2 25  4  0
  3 12  4  0
  3 14  1  0
  3 23  4  0
  4 13  4  0
  4 21  4  0
  4 24  1  0
  5  8  4  0
  5 23  4  0
  6 18  2  0
  7 15  4  0
  7 16  1  0
  7 27  4  0
  8 18  1  0
 10 18  1  0
 10 20  1  0
 11 15  4  0
 11 26  1  0
 13 22  4  0
 16 19  1  0
 16 20  2  0
 17 19  4  0
 17 21  4  0
 19 22  4  0
 20 28  1  0
 25 27  4  0
M  END
$$$$

 Created by Python create_sdf_string function

 28 30  0  0  0  0  0  0  0  0999 V2000
   11.4592   11.2893   18.7941 C   0  0  0  0  0  0  0  0  0  0  0  0
    3.4202    7.9009   20.3866 C   0  0  0  0  0  0  0  0  0  0  0  0
   13.5280   10.3522   19.3586 C   0  0  0  0  0  0  0  0  0  0  0  0
    9.6923    5.6468   22.7891 C   0  0  0  0  0  0  0  0  0  0  0  0
   11.7756   10.2554   20.8841 N   0  0  0  0  0  0  0  0  0  0  0  0
    8.9876   11.9370   19.8757 O   0  0  0  0  0  0  0  0  0  0  0  0
    6.0167    8.4478   21.1089 C   0  0  0  0  0  0  0  0  0  0  0  0
   11.0002   10.8890   20.0262 C   0  0  0  0  0  0  0  0  0  0  0  0
    2.1721    7.7393   20.0315 O   0  0  0  0  0  0  0  0  0  0  0  0
    9.1107   10.3880   21.3769 N   0  0  0  0  0  0  0  0  0  0  0  0
    3.9102    9.2008   20.3124 C   0  0  0  0  0  0  0  0  0  0  0  0
   12.7292   10.9960   18.4597 C   0  0  0  0  0  0  0  0  0  0  0  0
    9.3798    6.6793   23.6625 C   0  0  0  0  0  0  0  0  0  0  0  0
   14.7425   10.0739   19.0802 O   0  0  0  0  0  0  0  0  0  0  0  0
    5.1894    9.4673   20.7118 C   0  0  0  0  0  0  0  0  0  0  0  0
    7.3773    8.8224   21.4870 C   0  0  0  0  0  0  0  0  0  0  0  0
    8.4391    6.6439   21.0235 C   0  0  0  0  0  0  0  0  0  0  0  0
    9.6494   11.1353   20.4167 C   0  0  0  0  0  0  0  0  0  0  0  0
    8.1431    7.6829   21.9046 C   0  0  0  0  0  0  0  0  0  0  0  0
    7.7796   10.1314   21.5115 N   0  0  0  0  0  0  0  0  0  0  0  0
    9.2768    5.6183   21.4437 C   0  0  0  0  0  0  0  0  0  0  0  0
    8.6315    7.7322   23.1768 C   0  0  0  0  0  0  0  0  0  0  0  0
   13.0537    9.9821   20.5781 C   0  0  0  0  0  0  0  0  0  0  0  0
   10.3850    4.6575   23.2386 O   0  0  0  0  0  0  0  0  0  0  0  0
    4.2069    6.8450   20.7994 C   0  0  0  0  0  0  0  0  0  0  0  0
    3.0726   10.1043   19.8522 O   0  0  0  0  0  0  0  0  0  0  0  0
    5.5057    7.1196   21.1155 C   0  0  0  0  0  0  0  0  0  0  0  0
    7.0367   11.0229   21.9948 O   0  0  0  0  0  0  0  0  0  0  0  0
  1  8  4  0
  1 12  4  0
  2  9  1  0
  2 11  4  0
  2 25  4  0
  3 12  4  0
  3 14  1  0
  3 23  4  0
  4 13  4  0
  4 21  4  0
  4 24  1  0
  5  8  4  0
  5 23  4  0
  6 18  2  0
  7 15  4  0
  7 16  1  0
  7 27  4  0
  8 18  1  0
 10 18  1  0
 10 20  1  0
 11 15  4  0
 11 26  1  0
 13 22  4  0
 16 19  1  0
 16 20  2  0
 17 19  4  0
 17 21  4  0
 19 22  4  0
 20 28  1  0
 25 27  4  0
M  END
$$$$

 Created by Python create_sdf_string function

 28 30  0  0  0  0  0  0  0  0999 V2000
   11.4592   11.2893   18.7941 C   0  0  0  0  0  0  0  0  0  0  0  0
    3.4202    7.9009   20.3866 C   0  0  0  0  0  0  0  0  0  0  0  0
   13.5280   10.3522   19.3586 C   0  0  0  0  0  0  0  0  0  0  0  0
    9.6923    5.6468   22.7891 C   0  0  0  0  0  0  0  0  0  0  0  0
   11.7756   10.2554   20.8841 N   0  0  0  0  0  0  0  0  0  0  0  0
    8.9876   11.9370   19.8757 O   0  0  0  0  0  0  0  0  0  0  0  0
    6.0167    8.4478   21.1089 C   0  0  0  0  0  0  0  0  0  0  0  0
   11.0002   10.8890   20.0262 C   0  0  0  0  0  0  0  0  0  0  0  0
    2.1721    7.7393   20.0315 O   0  0  0  0  0  0  0  0  0  0  0  0
    9.1107   10.3880   21.3769 N   0  0  0  0  0  0  0  0  0  0  0  0
    3.9102    9.2008   20.3124 C   0  0  0  0  0  0  0  0  0  0  0  0
   12.7292   10.9960   18.4597 C   0  0  0  0  0  0  0  0  0  0  0  0
    9.3798    6.6793   23.6625 C   0  0  0  0  0  0  0  0  0  0  0  0
   14.7425   10.0739   19.0802 O   0  0  0  0  0  0  0  0  0  0  0  0
    5.1894    9.4673   20.7118 C   0  0  0  0  0  0  0  0  0  0  0  0
    7.3773    8.8224   21.4870 C   0  0  0  0  0  0  0  0  0  0  0  0
    8.4391    6.6439   21.0235 C   0  0  0  0  0  0  0  0  0  0  0  0
    9.6494   11.1353   20.4167 C   0  0  0  0  0  0  0  0  0  0  0  0
    8.1431    7.6829   21.9046 C   0  0  0  0  0  0  0  0  0  0  0  0
    7.7796   10.1314   21.5115 N   0  0  0  0  0  0  0  0  0  0  0  0
    9.2768    5.6183   21.4437 C   0  0  0  0  0  0  0  0  0  0  0  0
    8.6315    7.7322   23.1768 C   0  0  0  0  0  0  0  0  0  0  0  0
   13.0537    9.9821   20.5781 C   0  0  0  0  0  0  0  0  0  0  0  0
   10.3850    4.6575   23.2386 O   0  0  0  0  0  0  0  0  0  0  0  0
    4.2069    6.8450   20.7994 C   0  0  0  0  0  0  0  0  0  0  0  0
    3.0726   10.1043   19.8522 O   0  0  0  0  0  0  0  0  0  0  0  0
    5.5057    7.1196   21.1155 C   0  0  0  0  0  0  0  0  0  0  0  0
    7.0367   11.0229   21.9948 O   0  0  0  0  0  0  0  0  0  0  0  0
  1  8  4  0
  1 12  4  0
  2  9  1  0
  2 11  4  0
  2 25  4  0
  3 12  4  0
  3 14  1  0
  3 23  4  0
  4 13  4  0
  4 21  4  0
  4 24  1  0
  5  8  4  0
  5 23  4  0
  6 18  2  0
  7 15  4  0
  7 16  1  0
  7 27  4  0
  8 18  1  0
 10 18  1  0
 10 20  1  0
 11 15  4  0
 11 26  1  0
 13 22  4  0
 16 19  1  0
 16 20  2  0
 17 19  4  0
 17 21  4  0
 19 22  4  0
 20 28  1  0
 25 27  4  0
M  END
$$$$

 Created by Python create_sdf_string function

 28 30  0  0  0  0  0  0  0  0999 V2000
   11.4592   11.2893   18.7941 C   0  0  0  0  0  0  0  0  0  0  0  0
    3.4202    7.9009   20.3866 C   0  0  0  0  0  0  0  0  0  0  0  0
   13.5280   10.3522   19.3586 C   0  0  0  0  0  0  0  0  0  0  0  0
    9.6923    5.6468   22.7891 C   0  0  0  0  0  0  0  0  0  0  0  0
   11.7756   10.2554   20.8841 N   0  0  0  0  0  0  0  0  0  0  0  0
    8.9876   11.9370   19.8757 O   0  0  0  0  0  0  0  0  0  0  0  0
    6.0167    8.4478   21.1089 C   0  0  0  0  0  0  0  0  0  0  0  0
   11.0002   10.8890   20.0262 C   0  0  0  0  0  0  0  0  0  0  0  0
    2.1721    7.7393   20.0315 O   0  0  0  0  0  0  0  0  0  0  0  0
    9.1107   10.3880   21.3769 N   0  0  0  0  0  0  0  0  0  0  0  0
    3.9102    9.2008   20.3124 C   0  0  0  0  0  0  0  0  0  0  0  0
   12.7292   10.9960   18.4597 C   0  0  0  0  0  0  0  0  0  0  0  0
    9.3798    6.6793   23.6625 C   0  0  0  0  0  0  0  0  0  0  0  0
   14.7425   10.0739   19.0802 O   0  0  0  0  0  0  0  0  0  0  0  0
    5.1894    9.4673   20.7118 C   0  0  0  0  0  0  0  0  0  0  0  0
    7.3773    8.8224   21.4870 C   0  0  0  0  0  0  0  0  0  0  0  0
    8.4391    6.6439   21.0235 C   0  0  0  0  0  0  0  0  0  0  0  0
    9.6494   11.1353   20.4167 C   0  0  0  0  0  0  0  0  0  0  0  0
    8.1431    7.6829   21.9046 C   0  0  0  0  0  0  0  0  0  0  0  0
    7.7796   10.1314   21.5115 N   0  0  0  0  0  0  0  0  0  0  0  0
    9.2768    5.6183   21.4437 C   0  0  0  0  0  0  0  0  0  0  0  0
    8.6315    7.7322   23.1768 C   0  0  0  0  0  0  0  0  0  0  0  0
   13.0537    9.9821   20.5781 C   0  0  0  0  0  0  0  0  0  0  0  0
   10.3850    4.6575   23.2386 O   0  0  0  0  0  0  0  0  0  0  0  0
    4.2069    6.8450   20.7994 C   0  0  0  0  0  0  0  0  0  0  0  0
    3.0726   10.1043   19.8522 O   0  0  0  0  0  0  0  0  0  0  0  0
    5.5057    7.1196   21.1155 C   0  0  0  0  0  0  0  0  0  0  0  0
    7.0367   11.0229   21.9948 O   0  0  0  0  0  0  0  0  0  0  0  0
  1  8  4  0
  1 12  4  0
  2  9  1  0
  2 11  4  0
  2 25  4  0
  3 12  4  0
  3 14  1  0
  3 23  4  0
  4 13  4  0
  4 21  4  0
  4 24  1  0
  5  8  4  0
  5 23  4  0
  6 18  2  0
  7 15  4  0
  7 16  1  0
  7 27  4  0
  8 18  1  0
 10 18  1  0
 10 20  1  0
 11 15  4  0
 11 26  1  0
 13 22  4  0
 16 19  1  0
 16 20  2  0
 17 19  4  0
 17 21  4  0
 19 22  4  0
 20 28  1  0
 25 27  4  0
M  END
$$$$

 Created by Python create_sdf_string function

 28 30  0  0  0  0  0  0  0  0999 V2000
   11.4592   11.2893   18.7941 C   0  0  0  0  0  0  0  0  0  0  0  0
    3.4202    7.9009   20.3866 C   0  0  0  0  0  0  0  0  0  0  0  0
   13.5280   10.3522   19.3586 C   0  0  0  0  0  0  0  0  0  0  0  0
    9.6923    5.6468   22.7891 C   0  0  0  0  0  0  0  0  0  0  0  0
   11.7756   10.2554   20.8841 N   0  0  0  0  0  0  0  0  0  0  0  0
    8.9876   11.9370   19.8757 O   0  0  0  0  0  0  0  0  0  0  0  0
    6.0167    8.4478   21.1089 C   0  0  0  0  0  0  0  0  0  0  0  0
   11.0002   10.8890   20.0262 C   0  0  0  0  0  0  0  0  0  0  0  0
    2.1721    7.7393   20.0315 O   0  0  0  0  0  0  0  0  0  0  0  0
    9.1107   10.3880   21.3769 N   0  0  0  0  0  0  0  0  0  0  0  0
    3.9102    9.2008   20.3124 C   0  0  0  0  0  0  0  0  0  0  0  0
   12.7292   10.9960   18.4597 C   0  0  0  0  0  0  0  0  0  0  0  0
    9.3798    6.6793   23.6625 C   0  0  0  0  0  0  0  0  0  0  0  0
   14.7425   10.0739   19.0802 O   0  0  0  0  0  0  0  0  0  0  0  0
    5.1894    9.4673   20.7118 C   0  0  0  0  0  0  0  0  0  0  0  0
    7.3773    8.8224   21.4870 C   0  0  0  0  0  0  0  0  0  0  0  0
    8.4391    6.6439   21.0235 C   0  0  0  0  0  0  0  0  0  0  0  0
    9.6494   11.1353   20.4167 C   0  0  0  0  0  0  0  0  0  0  0  0
    8.1431    7.6829   21.9046 C   0  0  0  0  0  0  0  0  0  0  0  0
    7.7796   10.1314   21.5115 N   0  0  0  0  0  0  0  0  0  0  0  0
    9.2768    5.6183   21.4437 C   0  0  0  0  0  0  0  0  0  0  0  0
    8.6315    7.7322   23.1768 C   0  0  0  0  0  0  0  0  0  0  0  0
   13.0537    9.9821   20.5781 C   0  0  0  0  0  0  0  0  0  0  0  0
   10.3850    4.6575   23.2386 O   0  0  0  0  0  0  0  0  0  0  0  0
    4.2069    6.8450   20.7994 C   0  0  0  0  0  0  0  0  0  0  0  0
    3.0726   10.1043   19.8522 O   0  0  0  0  0  0  0  0  0  0  0  0
    5.5057    7.1196   21.1155 C   0  0  0  0  0  0  0  0  0  0  0  0
    7.0367   11.0229   21.9948 O   0  0  0  0  0  0  0  0  0  0  0  0
  1  8  4  0
  1 12  4  0
  2  9  1  0
  2 11  4  0
  2 25  4  0
  3 12  4  0
  3 14  1  0
  3 23  4  0
  4 13  4  0
  4 21  4  0
  4 24  1  0
  5  8  4  0
  5 23  4  0
  6 18  2  0
  7 15  4  0
  7 16  1  0
  7 27  4  0
  8 18  1  0
 10 18  1  0
 10 20  1  0
 11 15  4  0
 11 26  1  0
 13 22  4  0
 16 19  1  0
 16 20  2  0
 17 19  4  0
 17 21  4  0
 19 22  4  0
 20 28  1  0
 25 27  4  0
M  END
$$$$

 Created by Python create_sdf_string function

 28 30  0  0  0  0  0  0  0  0999 V2000
   11.4592   11.2893   18.7941 C   0  0  0  0  0  0  0  0  0  0  0  0
    3.4202    7.9009   20.3866 C   0  0  0  0  0  0  0  0  0  0  0  0
   13.5280   10.3522   19.3586 C   0  0  0  0  0  0  0  0  0  0  0  0
    9.6923    5.6468   22.7891 C   0  0  0  0  0  0  0  0  0  0  0  0
   11.7756   10.2554   20.8841 N   0  0  0  0  0  0  0  0  0  0  0  0
    8.9876   11.9370   19.8757 O   0  0  0  0  0  0  0  0  0  0  0  0
    6.0167    8.4478   21.1089 C   0  0  0  0  0  0  0  0  0  0  0  0
   11.0002   10.8890   20.0262 C   0  0  0  0  0  0  0  0  0  0  0  0
    2.1721    7.7393   20.0315 O   0  0  0  0  0  0  0  0  0  0  0  0
    9.1107   10.3880   21.3769 N   0  0  0  0  0  0  0  0  0  0  0  0
    3.9102    9.2008   20.3124 C   0  0  0  0  0  0  0  0  0  0  0  0
   12.7292   10.9960   18.4597 C   0  0  0  0  0  0  0  0  0  0  0  0
    9.3798    6.6793   23.6625 C   0  0  0  0  0  0  0  0  0  0  0  0
   14.7425   10.0739   19.0802 O   0  0  0  0  0  0  0  0  0  0  0  0
    5.1894    9.4673   20.7118 C   0  0  0  0  0  0  0  0  0  0  0  0
    7.3773    8.8224   21.4870 C   0  0  0  0  0  0  0  0  0  0  0  0
    8.4391    6.6439   21.0235 C   0  0  0  0  0  0  0  0  0  0  0  0
    9.6494   11.1353   20.4167 C   0  0  0  0  0  0  0  0  0  0  0  0
    8.1431    7.6829   21.9046 C   0  0  0  0  0  0  0  0  0  0  0  0
    7.7796   10.1314   21.5115 N   0  0  0  0  0  0  0  0  0  0  0  0
    9.2768    5.6183   21.4437 C   0  0  0  0  0  0  0  0  0  0  0  0
    8.6315    7.7322   23.1768 C   0  0  0  0  0  0  0  0  0  0  0  0
   13.0537    9.9821   20.5781 C   0  0  0  0  0  0  0  0  0  0  0  0
   10.3850    4.6575   23.2386 O   0  0  0  0  0  0  0  0  0  0  0  0
    4.2069    6.8450   20.7994 C   0  0  0  0  0  0  0  0  0  0  0  0
    3.0726   10.1043   19.8522 O   0  0  0  0  0  0  0  0  0  0  0  0
    5.5057    7.1196   21.1155 C   0  0  0  0  0  0  0  0  0  0  0  0
    7.0367   11.0229   21.9948 O   0  0  0  0  0  0  0  0  0  0  0  0
  1  8  4  0
  1 12  4  0
  2  9  1  0
  2 11  4  0
  2 25  4  0
  3 12  4  0
  3 14  1  0
  3 23  4  0
  4 13  4  0
  4 21  4  0
  4 24  1  0
  5  8  4  0
  5 23  4  0
  6 18  2  0
  7 15  4  0
  7 16  1  0
  7 27  4  0
  8 18  1  0
 10 18  1  0
 10 20  1  0
 11 15  4  0
 11 26  1  0
 13 22  4  0
 16 19  1  0
 16 20  2  0
 17 19  4  0
 17 21  4  0
 19 22  4  0
 20 28  1  0
 25 27  4  0
M  END
$$$$

 Created by Python create_sdf_string function

 28 30  0  0  0  0  0  0  0  0999 V2000
   11.4592   11.2893   18.7941 C   0  0  0  0  0  0  0  0  0  0  0  0
    3.4202    7.9009   20.3866 C   0  0  0  0  0  0  0  0  0  0  0  0
   13.5280   10.3522   19.3586 C   0  0  0  0  0  0  0  0  0  0  0  0
    9.6923    5.6468   22.7891 C   0  0  0  0  0  0  0  0  0  0  0  0
   11.7756   10.2554   20.8841 N   0  0  0  0  0  0  0  0  0  0  0  0
    8.9876   11.9370   19.8757 O   0  0  0  0  0  0  0  0  0  0  0  0
    6.0167    8.4478   21.1089 C   0  0  0  0  0  0  0  0  0  0  0  0
   11.0002   10.8890   20.0262 C   0  0  0  0  0  0  0  0  0  0  0  0
    2.1721    7.7393   20.0315 O   0  0  0  0  0  0  0  0  0  0  0  0
    9.1107   10.3880   21.3769 N   0  0  0  0  0  0  0  0  0  0  0  0
    3.9102    9.2008   20.3124 C   0  0  0  0  0  0  0  0  0  0  0  0
   12.7292   10.9960   18.4597 C   0  0  0  0  0  0  0  0  0  0  0  0
    9.3798    6.6793   23.6625 C   0  0  0  0  0  0  0  0  0  0  0  0
   14.7425   10.0739   19.0802 O   0  0  0  0  0  0  0  0  0  0  0  0
    5.1894    9.4673   20.7118 C   0  0  0  0  0  0  0  0  0  0  0  0
    7.3773    8.8224   21.4870 C   0  0  0  0  0  0  0  0  0  0  0  0
    8.4391    6.6439   21.0235 C   0  0  0  0  0  0  0  0  0  0  0  0
    9.6494   11.1353   20.4167 C   0  0  0  0  0  0  0  0  0  0  0  0
    8.1431    7.6829   21.9046 C   0  0  0  0  0  0  0  0  0  0  0  0
    7.7796   10.1314   21.5115 N   0  0  0  0  0  0  0  0  0  0  0  0
    9.2768    5.6183   21.4437 C   0  0  0  0  0  0  0  0  0  0  0  0
    8.6315    7.7322   23.1768 C   0  0  0  0  0  0  0  0  0  0  0  0
   13.0537    9.9821   20.5781 C   0  0  0  0  0  0  0  0  0  0  0  0
   10.3850    4.6575   23.2386 O   0  0  0  0  0  0  0  0  0  0  0  0
    4.2069    6.8450   20.7994 C   0  0  0  0  0  0  0  0  0  0  0  0
    3.0726   10.1043   19.8522 O   0  0  0  0  0  0  0  0  0  0  0  0
    5.5057    7.1196   21.1155 C   0  0  0  0  0  0  0  0  0  0  0  0
    7.0367   11.0229   21.9948 O   0  0  0  0  0  0  0  0  0  0  0  0
  1  8  4  0
  1 12  4  0
  2  9  1  0
  2 11  4  0
  2 25  4  0
  3 12  4  0
  3 14  1  0
  3 23  4  0
  4 13  4  0
  4 21  4  0
  4 24  1  0
  5  8  4  0
  5 23  4  0
  6 18  2  0
  7 15  4  0
  7 16  1  0
  7 27  4  0
  8 18  1  0
 10 18  1  0
 10 20  1  0
 11 15  4  0
 11 26  1  0
 13 22  4  0
 16 19  1  0
 16 20  2  0
 17 19  4  0
 17 21  4  0
 19 22  4  0
 20 28  1  0
 25 27  4  0
M  END
$$$$

 Created by Python create_sdf_string function

 28 30  0  0  0  0  0  0  0  0999 V2000
   11.4592   11.2893   18.7941 C   0  0  0  0  0  0  0  0  0  0  0  0
    3.4202    7.9009   20.3866 C   0  0  0  0  0  0  0  0  0  0  0  0
   13.5280   10.3522   19.3586 C   0  0  0  0  0  0  0  0  0  0  0  0
    9.6923    5.6468   22.7891 C   0  0  0  0  0  0  0  0  0  0  0  0
   11.7756   10.2554   20.8841 N   0  0  0  0  0  0  0  0  0  0  0  0
    8.9876   11.9370   19.8757 O   0  0  0  0  0  0  0  0  0  0  0  0
    6.0167    8.4478   21.1089 C   0  0  0  0  0  0  0  0  0  0  0  0
   11.0002   10.8890   20.0262 C   0  0  0  0  0  0  0  0  0  0  0  0
    2.1721    7.7393   20.0315 O   0  0  0  0  0  0  0  0  0  0  0  0
    9.1107   10.3880   21.3769 N   0  0  0  0  0  0  0  0  0  0  0  0
    3.9102    9.2008   20.3124 C   0  0  0  0  0  0  0  0  0  0  0  0
   12.7292   10.9960   18.4597 C   0  0  0  0  0  0  0  0  0  0  0  0
    9.3798    6.6793   23.6625 C   0  0  0  0  0  0  0  0  0  0  0  0
   14.7425   10.0739   19.0802 O   0  0  0  0  0  0  0  0  0  0  0  0
    5.1894    9.4673   20.7118 C   0  0  0  0  0  0  0  0  0  0  0  0
    7.3773    8.8224   21.4870 C   0  0  0  0  0  0  0  0  0  0  0  0
    8.4391    6.6439   21.0235 C   0  0  0  0  0  0  0  0  0  0  0  0
    9.6494   11.1353   20.4167 C   0  0  0  0  0  0  0  0  0  0  0  0
    8.1431    7.6829   21.9046 C   0  0  0  0  0  0  0  0  0  0  0  0
    7.7796   10.1314   21.5115 N   0  0  0  0  0  0  0  0  0  0  0  0
    9.2768    5.6183   21.4437 C   0  0  0  0  0  0  0  0  0  0  0  0
    8.6315    7.7322   23.1768 C   0  0  0  0  0  0  0  0  0  0  0  0
   13.0537    9.9821   20.5781 C   0  0  0  0  0  0  0  0  0  0  0  0
   10.3850    4.6575   23.2386 O   0  0  0  0  0  0  0  0  0  0  0  0
    4.2069    6.8450   20.7994 C   0  0  0  0  0  0  0  0  0  0  0  0
    3.0726   10.1043   19.8522 O   0  0  0  0  0  0  0  0  0  0  0  0
    5.5057    7.1196   21.1155 C   0  0  0  0  0  0  0  0  0  0  0  0
    7.0367   11.0229   21.9948 O   0  0  0  0  0  0  0  0  0  0  0  0
  1  8  4  0
  1 12  4  0
  2  9  1  0
  2 11  4  0
  2 25  4  0
  3 12  4  0
  3 14  1  0
  3 23  4  0
  4 13  4  0
  4 21  4  0
  4 24  1  0
  5  8  4  0
  5 23  4  0
  6 18  2  0
  7 15  4  0
  7 16  1  0
  7 27  4  0
  8 18  1  0
 10 18  1  0
 10 20  1  0
 11 15  4  0
 11 26  1  0
 13 22  4  0
 16 19  1  0
 16 20  2  0
 17 19  4  0
 17 21  4  0
 19 22  4  0
 20 28  1  0
 25 27  4  0
M  END
$$$$

 Created by Python create_sdf_string function

 28 30  0  0  0  0  0  0  0  0999 V2000
   11.4592   11.2893   18.7941 C   0  0  0  0  0  0  0  0  0  0  0  0
    3.4202    7.9009   20.3866 C   0  0  0  0  0  0  0  0  0  0  0  0
   13.5280   10.3522   19.3586 C   0  0  0  0  0  0  0  0  0  0  0  0
    9.6923    5.6468   22.7891 C   0  0  0  0  0  0  0  0  0  0  0  0
   11.7756   10.2554   20.8841 N   0  0  0  0  0  0  0  0  0  0  0  0
    8.9876   11.9370   19.8757 O   0  0  0  0  0  0  0  0  0  0  0  0
    6.0167    8.4478   21.1089 C   0  0  0  0  0  0  0  0  0  0  0  0
   11.0002   10.8890   20.0262 C   0  0  0  0  0  0  0  0  0  0  0  0
    2.1721    7.7393   20.0315 O   0  0  0  0  0  0  0  0  0  0  0  0
    9.1107   10.3880   21.3769 N   0  0  0  0  0  0  0  0  0  0  0  0
    3.9102    9.2008   20.3124 C   0  0  0  0  0  0  0  0  0  0  0  0
   12.7292   10.9960   18.4597 C   0  0  0  0  0  0  0  0  0  0  0  0
    9.3798    6.6793   23.6625 C   0  0  0  0  0  0  0  0  0  0  0  0
   14.7425   10.0739   19.0802 O   0  0  0  0  0  0  0  0  0  0  0  0
    5.1894    9.4673   20.7118 C   0  0  0  0  0  0  0  0  0  0  0  0
    7.3773    8.8224   21.4870 C   0  0  0  0  0  0  0  0  0  0  0  0
    8.4391    6.6439   21.0235 C   0  0  0  0  0  0  0  0  0  0  0  0
    9.6494   11.1353   20.4167 C   0  0  0  0  0  0  0  0  0  0  0  0
    8.1431    7.6829   21.9046 C   0  0  0  0  0  0  0  0  0  0  0  0
    7.7796   10.1314   21.5115 N   0  0  0  0  0  0  0  0  0  0  0  0
    9.2768    5.6183   21.4437 C   0  0  0  0  0  0  0  0  0  0  0  0
    8.6315    7.7322   23.1768 C   0  0  0  0  0  0  0  0  0  0  0  0
   13.0537    9.9821   20.5781 C   0  0  0  0  0  0  0  0  0  0  0  0
   10.3850    4.6575   23.2386 O   0  0  0  0  0  0  0  0  0  0  0  0
    4.2069    6.8450   20.7994 C   0  0  0  0  0  0  0  0  0  0  0  0
    3.0726   10.1043   19.8522 O   0  0  0  0  0  0  0  0  0  0  0  0
    5.5057    7.1196   21.1155 C   0  0  0  0  0  0  0  0  0  0  0  0
    7.0367   11.0229   21.9948 O   0  0  0  0  0  0  0  0  0  0  0  0
  1  8  4  0
  1 12  4  0
  2  9  1  0
  2 11  4  0
  2 25  4  0
  3 12  4  0
  3 14  1  0
  3 23  4  0
  4 13  4  0
  4 21  4  0
  4 24  1  0
  5  8  4  0
  5 23  4  0
  6 18  2  0
  7 15  4  0
  7 16  1  0
  7 27  4  0
  8 18  1  0
 10 18  1  0
 10 20  1  0
 11 15  4  0
 11 26  1  0
 13 22  4  0
 16 19  1  0
 16 20  2  0
 17 19  4  0
 17 21  4  0
 19 22  4  0
 20 28  1  0
 25 27  4  0
M  END
$$$$

 Created by Python create_sdf_string function

 28 30  0  0  0  0  0  0  0  0999 V2000
   11.4592   11.2893   18.7941 C   0  0  0  0  0  0  0  0  0  0  0  0
    3.4202    7.9009   20.3866 C   0  0  0  0  0  0  0  0  0  0  0  0
   13.5280   10.3522   19.3586 C   0  0  0  0  0  0  0  0  0  0  0  0
    9.6923    5.6468   22.7891 C   0  0  0  0  0  0  0  0  0  0  0  0
   11.7756   10.2554   20.8841 N   0  0  0  0  0  0  0  0  0  0  0  0
    8.9876   11.9370   19.8757 O   0  0  0  0  0  0  0  0  0  0  0  0
    6.0167    8.4478   21.1089 C   0  0  0  0  0  0  0  0  0  0  0  0
   11.0002   10.8890   20.0262 C   0  0  0  0  0  0  0  0  0  0  0  0
    2.1721    7.7393   20.0315 O   0  0  0  0  0  0  0  0  0  0  0  0
    9.1107   10.3880   21.3769 N   0  0  0  0  0  0  0  0  0  0  0  0
    3.9102    9.2008   20.3124 C   0  0  0  0  0  0  0  0  0  0  0  0
   12.7292   10.9960   18.4597 C   0  0  0  0  0  0  0  0  0  0  0  0
    9.3798    6.6793   23.6625 C   0  0  0  0  0  0  0  0  0  0  0  0
   14.7425   10.0739   19.0802 O   0  0  0  0  0  0  0  0  0  0  0  0
    5.1894    9.4673   20.7118 C   0  0  0  0  0  0  0  0  0  0  0  0
    7.3773    8.8224   21.4870 C   0  0  0  0  0  0  0  0  0  0  0  0
    8.4391    6.6439   21.0235 C   0  0  0  0  0  0  0  0  0  0  0  0
    9.6494   11.1353   20.4167 C   0  0  0  0  0  0  0  0  0  0  0  0
    8.1431    7.6829   21.9046 C   0  0  0  0  0  0  0  0  0  0  0  0
    7.7796   10.1314   21.5115 N   0  0  0  0  0  0  0  0  0  0  0  0
    9.2768    5.6183   21.4437 C   0  0  0  0  0  0  0  0  0  0  0  0
    8.6315    7.7322   23.1768 C   0  0  0  0  0  0  0  0  0  0  0  0
   13.0537    9.9821   20.5781 C   0  0  0  0  0  0  0  0  0  0  0  0
   10.3850    4.6575   23.2386 O   0  0  0  0  0  0  0  0  0  0  0  0
    4.2069    6.8450   20.7994 C   0  0  0  0  0  0  0  0  0  0  0  0
    3.0726   10.1043   19.8522 O   0  0  0  0  0  0  0  0  0  0  0  0
    5.5057    7.1196   21.1155 C   0  0  0  0  0  0  0  0  0  0  0  0
    7.0367   11.0229   21.9948 O   0  0  0  0  0  0  0  0  0  0  0  0
  1  8  4  0
  1 12  4  0
  2  9  1  0
  2 11  4  0
  2 25  4  0
  3 12  4  0
  3 14  1  0
  3 23  4  0
  4 13  4  0
  4 21  4  0
  4 24  1  0
  5  8  4  0
  5 23  4  0
  6 18  2  0
  7 15  4  0
  7 16  1  0
  7 27  4  0
  8 18  1  0
 10 18  1  0
 10 20  1  0
 11 15  4  0
 11 26  1  0
 13 22  4  0
 16 19  1  0
 16 20  2  0
 17 19  4  0
 17 21  4  0
 19 22  4  0
 20 28  1  0
 25 27  4  0
M  END
$$$$

 Created by Python create_sdf_string function

 28 30  0  0  0  0  0  0  0  0999 V2000
   11.4592   11.2893   18.7941 C   0  0  0  0  0  0  0  0  0  0  0  0
    3.4202    7.9009   20.3866 C   0  0  0  0  0  0  0  0  0  0  0  0
   13.5280   10.3522   19.3586 C   0  0  0  0  0  0  0  0  0  0  0  0
    9.6923    5.6468   22.7891 C   0  0  0  0  0  0  0  0  0  0  0  0
   11.7756   10.2554   20.8841 N   0  0  0  0  0  0  0  0  0  0  0  0
    8.9876   11.9370   19.8757 O   0  0  0  0  0  0  0  0  0  0  0  0
    6.0167    8.4478   21.1089 C   0  0  0  0  0  0  0  0  0  0  0  0
   11.0002   10.8890   20.0262 C   0  0  0  0  0  0  0  0  0  0  0  0
    2.1721    7.7393   20.0315 O   0  0  0  0  0  0  0  0  0  0  0  0
    9.1107   10.3880   21.3769 N   0  0  0  0  0  0  0  0  0  0  0  0
    3.9102    9.2008   20.3124 C   0  0  0  0  0  0  0  0  0  0  0  0
   12.7292   10.9960   18.4597 C   0  0  0  0  0  0  0  0  0  0  0  0
    9.3798    6.6793   23.6625 C   0  0  0  0  0  0  0  0  0  0  0  0
   14.7425   10.0739   19.0802 O   0  0  0  0  0  0  0  0  0  0  0  0
    5.1894    9.4673   20.7118 C   0  0  0  0  0  0  0  0  0  0  0  0
    7.3773    8.8224   21.4870 C   0  0  0  0  0  0  0  0  0  0  0  0
    8.4391    6.6439   21.0235 C   0  0  0  0  0  0  0  0  0  0  0  0
    9.6494   11.1353   20.4167 C   0  0  0  0  0  0  0  0  0  0  0  0
    8.1431    7.6829   21.9046 C   0  0  0  0  0  0  0  0  0  0  0  0
    7.7796   10.1314   21.5115 N   0  0  0  0  0  0  0  0  0  0  0  0
    9.2768    5.6183   21.4437 C   0  0  0  0  0  0  0  0  0  0  0  0
    8.6315    7.7322   23.1768 C   0  0  0  0  0  0  0  0  0  0  0  0
   13.0537    9.9821   20.5781 C   0  0  0  0  0  0  0  0  0  0  0  0
   10.3850    4.6575   23.2386 O   0  0  0  0  0  0  0  0  0  0  0  0
    4.2069    6.8450   20.7994 C   0  0  0  0  0  0  0  0  0  0  0  0
    3.0726   10.1043   19.8522 O   0  0  0  0  0  0  0  0  0  0  0  0
    5.5057    7.1196   21.1155 C   0  0  0  0  0  0  0  0  0  0  0  0
    7.0367   11.0229   21.9948 O   0  0  0  0  0  0  0  0  0  0  0  0
  1  8  4  0
  1 12  4  0
  2  9  1  0
  2 11  4  0
  2 25  4  0
  3 12  4  0
  3 14  1  0
  3 23  4  0
  4 13  4  0
  4 21  4  0
  4 24  1  0
  5  8  4  0
  5 23  4  0
  6 18  2  0
  7 15  4  0
  7 16  1  0
  7 27  4  0
  8 18  1  0
 10 18  1  0
 10 20  1  0
 11 15  4  0
 11 26  1  0
 13 22  4  0
 16 19  1  0
 16 20  2  0
 17 19  4  0
 17 21  4  0
 19 22  4  0
 20 28  1  0
 25 27  4  0
M  END
$$$$

 Created by Python create_sdf_string function

 28 30  0  0  0  0  0  0  0  0999 V2000
   11.4592   11.2893   18.7941 C   0  0  0  0  0  0  0  0  0  0  0  0
    3.4202    7.9009   20.3866 C   0  0  0  0  0  0  0  0  0  0  0  0
   13.5280   10.3522   19.3586 C   0  0  0  0  0  0  0  0  0  0  0  0
    9.6923    5.6468   22.7891 C   0  0  0  0  0  0  0  0  0  0  0  0
   11.7756   10.2554   20.8841 N   0  0  0  0  0  0  0  0  0  0  0  0
    8.9876   11.9370   19.8757 O   0  0  0  0  0  0  0  0  0  0  0  0
    6.0167    8.4478   21.1089 C   0  0  0  0  0  0  0  0  0  0  0  0
   11.0002   10.8890   20.0262 C   0  0  0  0  0  0  0  0  0  0  0  0
    2.1721    7.7393   20.0315 O   0  0  0  0  0  0  0  0  0  0  0  0
    9.1107   10.3880   21.3769 N   0  0  0  0  0  0  0  0  0  0  0  0
    3.9102    9.2008   20.3124 C   0  0  0  0  0  0  0  0  0  0  0  0
   12.7292   10.9960   18.4597 C   0  0  0  0  0  0  0  0  0  0  0  0
    9.3798    6.6793   23.6625 C   0  0  0  0  0  0  0  0  0  0  0  0
   14.7425   10.0739   19.0802 O   0  0  0  0  0  0  0  0  0  0  0  0
    5.1894    9.4673   20.7118 C   0  0  0  0  0  0  0  0  0  0  0  0
    7.3773    8.8224   21.4870 C   0  0  0  0  0  0  0  0  0  0  0  0
    8.4391    6.6439   21.0235 C   0  0  0  0  0  0  0  0  0  0  0  0
    9.6494   11.1353   20.4167 C   0  0  0  0  0  0  0  0  0  0  0  0
    8.1431    7.6829   21.9046 C   0  0  0  0  0  0  0  0  0  0  0  0
    7.7796   10.1314   21.5115 N   0  0  0  0  0  0  0  0  0  0  0  0
    9.2768    5.6183   21.4437 C   0  0  0  0  0  0  0  0  0  0  0  0
    8.6315    7.7322   23.1768 C   0  0  0  0  0  0  0  0  0  0  0  0
   13.0537    9.9821   20.5781 C   0  0  0  0  0  0  0  0  0  0  0  0
   10.3850    4.6575   23.2386 O   0  0  0  0  0  0  0  0  0  0  0  0
    4.2069    6.8450   20.7994 C   0  0  0  0  0  0  0  0  0  0  0  0
    3.0726   10.1043   19.8522 O   0  0  0  0  0  0  0  0  0  0  0  0
    5.5057    7.1196   21.1155 C   0  0  0  0  0  0  0  0  0  0  0  0
    7.0367   11.0229   21.9948 O   0  0  0  0  0  0  0  0  0  0  0  0
  1  8  4  0
  1 12  4  0
  2  9  1  0
  2 11  4  0
  2 25  4  0
  3 12  4  0
  3 14  1  0
  3 23  4  0
  4 13  4  0
  4 21  4  0
  4 24  1  0
  5  8  4  0
  5 23  4  0
  6 18  2  0
  7 15  4  0
  7 16  1  0
  7 27  4  0
  8 18  1  0
 10 18  1  0
 10 20  1  0
 11 15  4  0
 11 26  1  0
 13 22  4  0
 16 19  1  0
 16 20  2  0
 17 19  4  0
 17 21  4  0
 19 22  4  0
 20 28  1  0
 25 27  4  0
M  END
$$$$

 Created by Python create_sdf_string function

 28 30  0  0  0  0  0  0  0  0999 V2000
   11.4592   11.2893   18.7941 C   0  0  0  0  0  0  0  0  0  0  0  0
    3.4202    7.9009   20.3866 C   0  0  0  0  0  0  0  0  0  0  0  0
   13.5280   10.3522   19.3586 C   0  0  0  0  0  0  0  0  0  0  0  0
    9.6923    5.6468   22.7891 C   0  0  0  0  0  0  0  0  0  0  0  0
   11.7756   10.2554   20.8841 N   0  0  0  0  0  0  0  0  0  0  0  0
    8.9876   11.9370   19.8757 O   0  0  0  0  0  0  0  0  0  0  0  0
    6.0167    8.4478   21.1089 C   0  0  0  0  0  0  0  0  0  0  0  0
   11.0002   10.8890   20.0262 C   0  0  0  0  0  0  0  0  0  0  0  0
    2.1721    7.7393   20.0315 O   0  0  0  0  0  0  0  0  0  0  0  0
    9.1107   10.3880   21.3769 N   0  0  0  0  0  0  0  0  0  0  0  0
    3.9102    9.2008   20.3124 C   0  0  0  0  0  0  0  0  0  0  0  0
   12.7292   10.9960   18.4597 C   0  0  0  0  0  0  0  0  0  0  0  0
    9.3798    6.6793   23.6625 C   0  0  0  0  0  0  0  0  0  0  0  0
   14.7425   10.0739   19.0802 O   0  0  0  0  0  0  0  0  0  0  0  0
    5.1894    9.4673   20.7118 C   0  0  0  0  0  0  0  0  0  0  0  0
    7.3773    8.8224   21.4870 C   0  0  0  0  0  0  0  0  0  0  0  0
    8.4391    6.6439   21.0235 C   0  0  0  0  0  0  0  0  0  0  0  0
    9.6494   11.1353   20.4167 C   0  0  0  0  0  0  0  0  0  0  0  0
    8.1431    7.6829   21.9046 C   0  0  0  0  0  0  0  0  0  0  0  0
    7.7796   10.1314   21.5115 N   0  0  0  0  0  0  0  0  0  0  0  0
    9.2768    5.6183   21.4437 C   0  0  0  0  0  0  0  0  0  0  0  0
    8.6315    7.7322   23.1768 C   0  0  0  0  0  0  0  0  0  0  0  0
   13.0537    9.9821   20.5781 C   0  0  0  0  0  0  0  0  0  0  0  0
   10.3850    4.6575   23.2386 O   0  0  0  0  0  0  0  0  0  0  0  0
    4.2069    6.8450   20.7994 C   0  0  0  0  0  0  0  0  0  0  0  0
    3.0726   10.1043   19.8522 O   0  0  0  0  0  0  0  0  0  0  0  0
    5.5057    7.1196   21.1155 C   0  0  0  0  0  0  0  0  0  0  0  0
    7.0367   11.0229   21.9948 O   0  0  0  0  0  0  0  0  0  0  0  0
  1  8  4  0
  1 12  4  0
  2  9  1  0
  2 11  4  0
  2 25  4  0
  3 12  4  0
  3 14  1  0
  3 23  4  0
  4 13  4  0
  4 21  4  0
  4 24  1  0
  5  8  4  0
  5 23  4  0
  6 18  2  0
  7 15  4  0
  7 16  1  0
  7 27  4  0
  8 18  1  0
 10 18  1  0
 10 20  1  0
 11 15  4  0
 11 26  1  0
 13 22  4  0
 16 19  1  0
 16 20  2  0
 17 19  4  0
 17 21  4  0
 19 22  4  0
 20 28  1  0
 25 27  4  0
M  END
$$$$

 Created by Python create_sdf_string function

 28 30  0  0  0  0  0  0  0  0999 V2000
   11.4592   11.2893   18.7941 C   0  0  0  0  0  0  0  0  0  0  0  0
    3.4202    7.9009   20.3866 C   0  0  0  0  0  0  0  0  0  0  0  0
   13.5280   10.3522   19.3586 C   0  0  0  0  0  0  0  0  0  0  0  0
    9.6923    5.6468   22.7891 C   0  0  0  0  0  0  0  0  0  0  0  0
   11.7756   10.2554   20.8841 N   0  0  0  0  0  0  0  0  0  0  0  0
    8.9876   11.9370   19.8757 O   0  0  0  0  0  0  0  0  0  0  0  0
    6.0167    8.4478   21.1089 C   0  0  0  0  0  0  0  0  0  0  0  0
   11.0002   10.8890   20.0262 C   0  0  0  0  0  0  0  0  0  0  0  0
    2.1721    7.7393   20.0315 O   0  0  0  0  0  0  0  0  0  0  0  0
    9.1107   10.3880   21.3769 N   0  0  0  0  0  0  0  0  0  0  0  0
    3.9102    9.2008   20.3124 C   0  0  0  0  0  0  0  0  0  0  0  0
   12.7292   10.9960   18.4597 C   0  0  0  0  0  0  0  0  0  0  0  0
    9.3798    6.6793   23.6625 C   0  0  0  0  0  0  0  0  0  0  0  0
   14.7425   10.0739   19.0802 O   0  0  0  0  0  0  0  0  0  0  0  0
    5.1894    9.4673   20.7118 C   0  0  0  0  0  0  0  0  0  0  0  0
    7.3773    8.8224   21.4870 C   0  0  0  0  0  0  0  0  0  0  0  0
    8.4391    6.6439   21.0235 C   0  0  0  0  0  0  0  0  0  0  0  0
    9.6494   11.1353   20.4167 C   0  0  0  0  0  0  0  0  0  0  0  0
    8.1431    7.6829   21.9046 C   0  0  0  0  0  0  0  0  0  0  0  0
    7.7796   10.1314   21.5115 N   0  0  0  0  0  0  0  0  0  0  0  0
    9.2768    5.6183   21.4437 C   0  0  0  0  0  0  0  0  0  0  0  0
    8.6315    7.7322   23.1768 C   0  0  0  0  0  0  0  0  0  0  0  0
   13.0537    9.9821   20.5781 C   0  0  0  0  0  0  0  0  0  0  0  0
   10.3850    4.6575   23.2386 O   0  0  0  0  0  0  0  0  0  0  0  0
    4.2069    6.8450   20.7994 C   0  0  0  0  0  0  0  0  0  0  0  0
    3.0726   10.1043   19.8522 O   0  0  0  0  0  0  0  0  0  0  0  0
    5.5057    7.1196   21.1155 C   0  0  0  0  0  0  0  0  0  0  0  0
    7.0367   11.0229   21.9948 O   0  0  0  0  0  0  0  0  0  0  0  0
  1  8  4  0
  1 12  4  0
  2  9  1  0
  2 11  4  0
  2 25  4  0
  3 12  4  0
  3 14  1  0
  3 23  4  0
  4 13  4  0
  4 21  4  0
  4 24  1  0
  5  8  4  0
  5 23  4  0
  6 18  2  0
  7 15  4  0
  7 16  1  0
  7 27  4  0
  8 18  1  0
 10 18  1  0
 10 20  1  0
 11 15  4  0
 11 26  1  0
 13 22  4  0
 16 19  1  0
 16 20  2  0
 17 19  4  0
 17 21  4  0
 19 22  4  0
 20 28  1  0
 25 27  4  0
M  END
$$$$

 Created by Python create_sdf_string function

 28 30  0  0  0  0  0  0  0  0999 V2000
   11.4592   11.2893   18.7941 C   0  0  0  0  0  0  0  0  0  0  0  0
    3.4202    7.9009   20.3866 C   0  0  0  0  0  0  0  0  0  0  0  0
   13.5280   10.3522   19.3586 C   0  0  0  0  0  0  0  0  0  0  0  0
    9.6923    5.6468   22.7891 C   0  0  0  0  0  0  0  0  0  0  0  0
   11.7756   10.2554   20.8841 N   0  0  0  0  0  0  0  0  0  0  0  0
    8.9876   11.9370   19.8757 O   0  0  0  0  0  0  0  0  0  0  0  0
    6.0167    8.4478   21.1089 C   0  0  0  0  0  0  0  0  0  0  0  0
   11.0002   10.8890   20.0262 C   0  0  0  0  0  0  0  0  0  0  0  0
    2.1721    7.7393   20.0315 O   0  0  0  0  0  0  0  0  0  0  0  0
    9.1107   10.3880   21.3769 N   0  0  0  0  0  0  0  0  0  0  0  0
    3.9102    9.2008   20.3124 C   0  0  0  0  0  0  0  0  0  0  0  0
   12.7292   10.9960   18.4597 C   0  0  0  0  0  0  0  0  0  0  0  0
    9.3798    6.6793   23.6625 C   0  0  0  0  0  0  0  0  0  0  0  0
   14.7425   10.0739   19.0802 O   0  0  0  0  0  0  0  0  0  0  0  0
    5.1894    9.4673   20.7118 C   0  0  0  0  0  0  0  0  0  0  0  0
    7.3773    8.8224   21.4870 C   0  0  0  0  0  0  0  0  0  0  0  0
    8.4391    6.6439   21.0235 C   0  0  0  0  0  0  0  0  0  0  0  0
    9.6494   11.1353   20.4167 C   0  0  0  0  0  0  0  0  0  0  0  0
    8.1431    7.6829   21.9046 C   0  0  0  0  0  0  0  0  0  0  0  0
    7.7796   10.1314   21.5115 N   0  0  0  0  0  0  0  0  0  0  0  0
    9.2768    5.6183   21.4437 C   0  0  0  0  0  0  0  0  0  0  0  0
    8.6315    7.7322   23.1768 C   0  0  0  0  0  0  0  0  0  0  0  0
   13.0537    9.9821   20.5781 C   0  0  0  0  0  0  0  0  0  0  0  0
   10.3850    4.6575   23.2386 O   0  0  0  0  0  0  0  0  0  0  0  0
    4.2069    6.8450   20.7994 C   0  0  0  0  0  0  0  0  0  0  0  0
    3.0726   10.1043   19.8522 O   0  0  0  0  0  0  0  0  0  0  0  0
    5.5057    7.1196   21.1155 C   0  0  0  0  0  0  0  0  0  0  0  0
    7.0367   11.0229   21.9948 O   0  0  0  0  0  0  0  0  0  0  0  0
  1  8  4  0
  1 12  4  0
  2  9  1  0
  2 11  4  0
  2 25  4  0
  3 12  4  0
  3 14  1  0
  3 23  4  0
  4 13  4  0
  4 21  4  0
  4 24  1  0
  5  8  4  0
  5 23  4  0
  6 18  2  0
  7 15  4  0
  7 16  1  0
  7 27  4  0
  8 18  1  0
 10 18  1  0
 10 20  1  0
 11 15  4  0
 11 26  1  0
 13 22  4  0
 16 19  1  0
 16 20  2  0
 17 19  4  0
 17 21  4  0
 19 22  4  0
 20 28  1  0
 25 27  4  0
M  END
$$$$

 Created by Python create_sdf_string function

 28 30  0  0  0  0  0  0  0  0999 V2000
   11.4592   11.2893   18.7941 C   0  0  0  0  0  0  0  0  0  0  0  0
    3.4202    7.9009   20.3866 C   0  0  0  0  0  0  0  0  0  0  0  0
   13.5280   10.3522   19.3586 C   0  0  0  0  0  0  0  0  0  0  0  0
    9.6923    5.6468   22.7891 C   0  0  0  0  0  0  0  0  0  0  0  0
   11.7756   10.2554   20.8841 N   0  0  0  0  0  0  0  0  0  0  0  0
    8.9876   11.9370   19.8757 O   0  0  0  0  0  0  0  0  0  0  0  0
    6.0167    8.4478   21.1089 C   0  0  0  0  0  0  0  0  0  0  0  0
   11.0002   10.8890   20.0262 C   0  0  0  0  0  0  0  0  0  0  0  0
    2.1721    7.7393   20.0315 O   0  0  0  0  0  0  0  0  0  0  0  0
    9.1107   10.3880   21.3769 N   0  0  0  0  0  0  0  0  0  0  0  0
    3.9102    9.2008   20.3124 C   0  0  0  0  0  0  0  0  0  0  0  0
   12.7292   10.9960   18.4597 C   0  0  0  0  0  0  0  0  0  0  0  0
    9.3798    6.6793   23.6625 C   0  0  0  0  0  0  0  0  0  0  0  0
   14.7425   10.0739   19.0802 O   0  0  0  0  0  0  0  0  0  0  0  0
    5.1894    9.4673   20.7118 C   0  0  0  0  0  0  0  0  0  0  0  0
    7.3773    8.8224   21.4870 C   0  0  0  0  0  0  0  0  0  0  0  0
    8.4391    6.6439   21.0235 C   0  0  0  0  0  0  0  0  0  0  0  0
    9.6494   11.1353   20.4167 C   0  0  0  0  0  0  0  0  0  0  0  0
    8.1431    7.6829   21.9046 C   0  0  0  0  0  0  0  0  0  0  0  0
    7.7796   10.1314   21.5115 N   0  0  0  0  0  0  0  0  0  0  0  0
    9.2768    5.6183   21.4437 C   0  0  0  0  0  0  0  0  0  0  0  0
    8.6315    7.7322   23.1768 C   0  0  0  0  0  0  0  0  0  0  0  0
   13.0537    9.9821   20.5781 C   0  0  0  0  0  0  0  0  0  0  0  0
   10.3850    4.6575   23.2386 O   0  0  0  0  0  0  0  0  0  0  0  0
    4.2069    6.8450   20.7994 C   0  0  0  0  0  0  0  0  0  0  0  0
    3.0726   10.1043   19.8522 O   0  0  0  0  0  0  0  0  0  0  0  0
    5.5057    7.1196   21.1155 C   0  0  0  0  0  0  0  0  0  0  0  0
    7.0367   11.0229   21.9948 O   0  0  0  0  0  0  0  0  0  0  0  0
  1  8  4  0
  1 12  4  0
  2  9  1  0
  2 11  4  0
  2 25  4  0
  3 12  4  0
  3 14  1  0
  3 23  4  0
  4 13  4  0
  4 21  4  0
  4 24  1  0
  5  8  4  0
  5 23  4  0
  6 18  2  0
  7 15  4  0
  7 16  1  0
  7 27  4  0
  8 18  1  0
 10 18  1  0
 10 20  1  0
 11 15  4  0
 11 26  1  0
 13 22  4  0
 16 19  1  0
 16 20  2  0
 17 19  4  0
 17 21  4  0
 19 22  4  0
 20 28  1  0
 25 27  4  0
M  END
$$$$

 Created by Python create_sdf_string function

 28 30  0  0  0  0  0  0  0  0999 V2000
   11.4592   11.2893   18.7941 C   0  0  0  0  0  0  0  0  0  0  0  0
    3.4202    7.9009   20.3866 C   0  0  0  0  0  0  0  0  0  0  0  0
   13.5280   10.3522   19.3586 C   0  0  0  0  0  0  0  0  0  0  0  0
    9.6923    5.6468   22.7891 C   0  0  0  0  0  0  0  0  0  0  0  0
   11.7756   10.2554   20.8841 N   0  0  0  0  0  0  0  0  0  0  0  0
    8.9876   11.9370   19.8757 O   0  0  0  0  0  0  0  0  0  0  0  0
    6.0167    8.4478   21.1089 C   0  0  0  0  0  0  0  0  0  0  0  0
   11.0002   10.8890   20.0262 C   0  0  0  0  0  0  0  0  0  0  0  0
    2.1721    7.7393   20.0315 O   0  0  0  0  0  0  0  0  0  0  0  0
    9.1107   10.3880   21.3769 N   0  0  0  0  0  0  0  0  0  0  0  0
    3.9102    9.2008   20.3124 C   0  0  0  0  0  0  0  0  0  0  0  0
   12.7292   10.9960   18.4597 C   0  0  0  0  0  0  0  0  0  0  0  0
    9.3798    6.6793   23.6625 C   0  0  0  0  0  0  0  0  0  0  0  0
   14.7425   10.0739   19.0802 O   0  0  0  0  0  0  0  0  0  0  0  0
    5.1894    9.4673   20.7118 C   0  0  0  0  0  0  0  0  0  0  0  0
    7.3773    8.8224   21.4870 C   0  0  0  0  0  0  0  0  0  0  0  0
    8.4391    6.6439   21.0235 C   0  0  0  0  0  0  0  0  0  0  0  0
    9.6494   11.1353   20.4167 C   0  0  0  0  0  0  0  0  0  0  0  0
    8.1431    7.6829   21.9046 C   0  0  0  0  0  0  0  0  0  0  0  0
    7.7796   10.1314   21.5115 N   0  0  0  0  0  0  0  0  0  0  0  0
    9.2768    5.6183   21.4437 C   0  0  0  0  0  0  0  0  0  0  0  0
    8.6315    7.7322   23.1768 C   0  0  0  0  0  0  0  0  0  0  0  0
   13.0537    9.9821   20.5781 C   0  0  0  0  0  0  0  0  0  0  0  0
   10.3850    4.6575   23.2386 O   0  0  0  0  0  0  0  0  0  0  0  0
    4.2069    6.8450   20.7994 C   0  0  0  0  0  0  0  0  0  0  0  0
    3.0726   10.1043   19.8522 O   0  0  0  0  0  0  0  0  0  0  0  0
    5.5057    7.1196   21.1155 C   0  0  0  0  0  0  0  0  0  0  0  0
    7.0367   11.0229   21.9948 O   0  0  0  0  0  0  0  0  0  0  0  0
  1  8  4  0
  1 12  4  0
  2  9  1  0
  2 11  4  0
  2 25  4  0
  3 12  4  0
  3 14  1  0
  3 23  4  0
  4 13  4  0
  4 21  4  0
  4 24  1  0
  5  8  4  0
  5 23  4  0
  6 18  2  0
  7 15  4  0
  7 16  1  0
  7 27  4  0
  8 18  1  0
 10 18  1  0
 10 20  1  0
 11 15  4  0
 11 26  1  0
 13 22  4  0
 16 19  1  0
 16 20  2  0
 17 19  4  0
 17 21  4  0
 19 22  4  0
 20 28  1  0
 25 27  4  0
M  END
$$$$

 Created by Python create_sdf_string function

 28 30  0  0  0  0  0  0  0  0999 V2000
   11.4592   11.2893   18.7941 C   0  0  0  0  0  0  0  0  0  0  0  0
    3.4202    7.9009   20.3866 C   0  0  0  0  0  0  0  0  0  0  0  0
   13.5280   10.3522   19.3586 C   0  0  0  0  0  0  0  0  0  0  0  0
    9.6923    5.6468   22.7891 C   0  0  0  0  0  0  0  0  0  0  0  0
   11.7756   10.2554   20.8841 N   0  0  0  0  0  0  0  0  0  0  0  0
    8.9876   11.9370   19.8757 O   0  0  0  0  0  0  0  0  0  0  0  0
    6.0167    8.4478   21.1089 C   0  0  0  0  0  0  0  0  0  0  0  0
   11.0002   10.8890   20.0262 C   0  0  0  0  0  0  0  0  0  0  0  0
    2.1721    7.7393   20.0315 O   0  0  0  0  0  0  0  0  0  0  0  0
    9.1107   10.3880   21.3769 N   0  0  0  0  0  0  0  0  0  0  0  0
    3.9102    9.2008   20.3124 C   0  0  0  0  0  0  0  0  0  0  0  0
   12.7292   10.9960   18.4597 C   0  0  0  0  0  0  0  0  0  0  0  0
    9.3798    6.6793   23.6625 C   0  0  0  0  0  0  0  0  0  0  0  0
   14.7425   10.0739   19.0802 O   0  0  0  0  0  0  0  0  0  0  0  0
    5.1894    9.4673   20.7118 C   0  0  0  0  0  0  0  0  0  0  0  0
    7.3773    8.8224   21.4870 C   0  0  0  0  0  0  0  0  0  0  0  0
    8.4391    6.6439   21.0235 C   0  0  0  0  0  0  0  0  0  0  0  0
    9.6494   11.1353   20.4167 C   0  0  0  0  0  0  0  0  0  0  0  0
    8.1431    7.6829   21.9046 C   0  0  0  0  0  0  0  0  0  0  0  0
    7.7796   10.1314   21.5115 N   0  0  0  0  0  0  0  0  0  0  0  0
    9.2768    5.6183   21.4437 C   0  0  0  0  0  0  0  0  0  0  0  0
    8.6315    7.7322   23.1768 C   0  0  0  0  0  0  0  0  0  0  0  0
   13.0537    9.9821   20.5781 C   0  0  0  0  0  0  0  0  0  0  0  0
   10.3850    4.6575   23.2386 O   0  0  0  0  0  0  0  0  0  0  0  0
    4.2069    6.8450   20.7994 C   0  0  0  0  0  0  0  0  0  0  0  0
    3.0726   10.1043   19.8522 O   0  0  0  0  0  0  0  0  0  0  0  0
    5.5057    7.1196   21.1155 C   0  0  0  0  0  0  0  0  0  0  0  0
    7.0367   11.0229   21.9948 O   0  0  0  0  0  0  0  0  0  0  0  0
  1  8  4  0
  1 12  4  0
  2  9  1  0
  2 11  4  0
  2 25  4  0
  3 12  4  0
  3 14  1  0
  3 23  4  0
  4 13  4  0
  4 21  4  0
  4 24  1  0
  5  8  4  0
  5 23  4  0
  6 18  2  0
  7 15  4  0
  7 16  1  0
  7 27  4  0
  8 18  1  0
 10 18  1  0
 10 20  1  0
 11 15  4  0
 11 26  1  0
 13 22  4  0
 16 19  1  0
 16 20  2  0
 17 19  4  0
 17 21  4  0
 19 22  4  0
 20 28  1  0
 25 27  4  0
M  END
$$$$

 Created by Python create_sdf_string function

 28 30  0  0  0  0  0  0  0  0999 V2000
   11.4592   11.2893   18.7941 C   0  0  0  0  0  0  0  0  0  0  0  0
    3.4202    7.9009   20.3866 C   0  0  0  0  0  0  0  0  0  0  0  0
   13.5280   10.3522   19.3586 C   0  0  0  0  0  0  0  0  0  0  0  0
    9.6923    5.6468   22.7891 C   0  0  0  0  0  0  0  0  0  0  0  0
   11.7756   10.2554   20.8841 N   0  0  0  0  0  0  0  0  0  0  0  0
    8.9876   11.9370   19.8757 O   0  0  0  0  0  0  0  0  0  0  0  0
    6.0167    8.4478   21.1089 C   0  0  0  0  0  0  0  0  0  0  0  0
   11.0002   10.8890   20.0262 C   0  0  0  0  0  0  0  0  0  0  0  0
    2.1721    7.7393   20.0315 O   0  0  0  0  0  0  0  0  0  0  0  0
    9.1107   10.3880   21.3769 N   0  0  0  0  0  0  0  0  0  0  0  0
    3.9102    9.2008   20.3124 C   0  0  0  0  0  0  0  0  0  0  0  0
   12.7292   10.9960   18.4597 C   0  0  0  0  0  0  0  0  0  0  0  0
    9.3798    6.6793   23.6625 C   0  0  0  0  0  0  0  0  0  0  0  0
   14.7425   10.0739   19.0802 O   0  0  0  0  0  0  0  0  0  0  0  0
    5.1894    9.4673   20.7118 C   0  0  0  0  0  0  0  0  0  0  0  0
    7.3773    8.8224   21.4870 C   0  0  0  0  0  0  0  0  0  0  0  0
    8.4391    6.6439   21.0235 C   0  0  0  0  0  0  0  0  0  0  0  0
    9.6494   11.1353   20.4167 C   0  0  0  0  0  0  0  0  0  0  0  0
    8.1431    7.6829   21.9046 C   0  0  0  0  0  0  0  0  0  0  0  0
    7.7796   10.1314   21.5115 N   0  0  0  0  0  0  0  0  0  0  0  0
    9.2768    5.6183   21.4437 C   0  0  0  0  0  0  0  0  0  0  0  0
    8.6315    7.7322   23.1768 C   0  0  0  0  0  0  0  0  0  0  0  0
   13.0537    9.9821   20.5781 C   0  0  0  0  0  0  0  0  0  0  0  0
   10.3850    4.6575   23.2386 O   0  0  0  0  0  0  0  0  0  0  0  0
    4.2069    6.8450   20.7994 C   0  0  0  0  0  0  0  0  0  0  0  0
    3.0726   10.1043   19.8522 O   0  0  0  0  0  0  0  0  0  0  0  0
    5.5057    7.1196   21.1155 C   0  0  0  0  0  0  0  0  0  0  0  0
    7.0367   11.0229   21.9948 O   0  0  0  0  0  0  0  0  0  0  0  0
  1  8  4  0
  1 12  4  0
  2  9  1  0
  2 11  4  0
  2 25  4  0
  3 12  4  0
  3 14  1  0
  3 23  4  0
  4 13  4  0
  4 21  4  0
  4 24  1  0
  5  8  4  0
  5 23  4  0
  6 18  2  0
  7 15  4  0
  7 16  1  0
  7 27  4  0
  8 18  1  0
 10 18  1  0
 10 20  1  0
 11 15  4  0
 11 26  1  0
 13 22  4  0
 16 19  1  0
 16 20  2  0
 17 19  4  0
 17 21  4  0
 19 22  4  0
 20 28  1  0
 25 27  4  0
M  END
$$$$

 Created by Python create_sdf_string function

 28 30  0  0  0  0  0  0  0  0999 V2000
   11.4592   11.2893   18.7941 C   0  0  0  0  0  0  0  0  0  0  0  0
    3.4202    7.9009   20.3866 C   0  0  0  0  0  0  0  0  0  0  0  0
   13.5280   10.3522   19.3586 C   0  0  0  0  0  0  0  0  0  0  0  0
    9.6923    5.6468   22.7891 C   0  0  0  0  0  0  0  0  0  0  0  0
   11.7756   10.2554   20.8841 N   0  0  0  0  0  0  0  0  0  0  0  0
    8.9876   11.9370   19.8757 O   0  0  0  0  0  0  0  0  0  0  0  0
    6.0167    8.4478   21.1089 C   0  0  0  0  0  0  0  0  0  0  0  0
   11.0002   10.8890   20.0262 C   0  0  0  0  0  0  0  0  0  0  0  0
    2.1721    7.7393   20.0315 O   0  0  0  0  0  0  0  0  0  0  0  0
    9.1107   10.3880   21.3769 N   0  0  0  0  0  0  0  0  0  0  0  0
    3.9102    9.2008   20.3124 C   0  0  0  0  0  0  0  0  0  0  0  0
   12.7292   10.9960   18.4597 C   0  0  0  0  0  0  0  0  0  0  0  0
    9.3798    6.6793   23.6625 C   0  0  0  0  0  0  0  0  0  0  0  0
   14.7425   10.0739   19.0802 O   0  0  0  0  0  0  0  0  0  0  0  0
    5.1894    9.4673   20.7118 C   0  0  0  0  0  0  0  0  0  0  0  0
    7.3773    8.8224   21.4870 C   0  0  0  0  0  0  0  0  0  0  0  0
    8.4391    6.6439   21.0235 C   0  0  0  0  0  0  0  0  0  0  0  0
    9.6494   11.1353   20.4167 C   0  0  0  0  0  0  0  0  0  0  0  0
    8.1431    7.6829   21.9046 C   0  0  0  0  0  0  0  0  0  0  0  0
    7.7796   10.1314   21.5115 N   0  0  0  0  0  0  0  0  0  0  0  0
    9.2768    5.6183   21.4437 C   0  0  0  0  0  0  0  0  0  0  0  0
    8.6315    7.7322   23.1768 C   0  0  0  0  0  0  0  0  0  0  0  0
   13.0537    9.9821   20.5781 C   0  0  0  0  0  0  0  0  0  0  0  0
   10.3850    4.6575   23.2386 O   0  0  0  0  0  0  0  0  0  0  0  0
    4.2069    6.8450   20.7994 C   0  0  0  0  0  0  0  0  0  0  0  0
    3.0726   10.1043   19.8522 O   0  0  0  0  0  0  0  0  0  0  0  0
    5.5057    7.1196   21.1155 C   0  0  0  0  0  0  0  0  0  0  0  0
    7.0367   11.0229   21.9948 O   0  0  0  0  0  0  0  0  0  0  0  0
  1  8  4  0
  1 12  4  0
  2  9  1  0
  2 11  4  0
  2 25  4  0
  3 12  4  0
  3 14  1  0
  3 23  4  0
  4 13  4  0
  4 21  4  0
  4 24  1  0
  5  8  4  0
  5 23  4  0
  6 18  2  0
  7 15  4  0
  7 16  1  0
  7 27  4  0
  8 18  1  0
 10 18  1  0
 10 20  1  0
 11 15  4  0
 11 26  1  0
 13 22  4  0
 16 19  1  0
 16 20  2  0
 17 19  4  0
 17 21  4  0
 19 22  4  0
 20 28  1  0
 25 27  4  0
M  END
$$$$

 Created by Python create_sdf_string function

 28 30  0  0  0  0  0  0  0  0999 V2000
   11.4592   11.2893   18.7941 C   0  0  0  0  0  0  0  0  0  0  0  0
    3.4202    7.9009   20.3866 C   0  0  0  0  0  0  0  0  0  0  0  0
   13.5280   10.3522   19.3586 C   0  0  0  0  0  0  0  0  0  0  0  0
    9.6923    5.6468   22.7891 C   0  0  0  0  0  0  0  0  0  0  0  0
   11.7756   10.2554   20.8841 N   0  0  0  0  0  0  0  0  0  0  0  0
    8.9876   11.9370   19.8757 O   0  0  0  0  0  0  0  0  0  0  0  0
    6.0167    8.4478   21.1089 C   0  0  0  0  0  0  0  0  0  0  0  0
   11.0002   10.8890   20.0262 C   0  0  0  0  0  0  0  0  0  0  0  0
    2.1721    7.7393   20.0315 O   0  0  0  0  0  0  0  0  0  0  0  0
    9.1107   10.3880   21.3769 N   0  0  0  0  0  0  0  0  0  0  0  0
    3.9102    9.2008   20.3124 C   0  0  0  0  0  0  0  0  0  0  0  0
   12.7292   10.9960   18.4597 C   0  0  0  0  0  0  0  0  0  0  0  0
    9.3798    6.6793   23.6625 C   0  0  0  0  0  0  0  0  0  0  0  0
   14.7425   10.0739   19.0802 O   0  0  0  0  0  0  0  0  0  0  0  0
    5.1894    9.4673   20.7118 C   0  0  0  0  0  0  0  0  0  0  0  0
    7.3773    8.8224   21.4870 C   0  0  0  0  0  0  0  0  0  0  0  0
    8.4391    6.6439   21.0235 C   0  0  0  0  0  0  0  0  0  0  0  0
    9.6494   11.1353   20.4167 C   0  0  0  0  0  0  0  0  0  0  0  0
    8.1431    7.6829   21.9046 C   0  0  0  0  0  0  0  0  0  0  0  0
    7.7796   10.1314   21.5115 N   0  0  0  0  0  0  0  0  0  0  0  0
    9.2768    5.6183   21.4437 C   0  0  0  0  0  0  0  0  0  0  0  0
    8.6315    7.7322   23.1768 C   0  0  0  0  0  0  0  0  0  0  0  0
   13.0537    9.9821   20.5781 C   0  0  0  0  0  0  0  0  0  0  0  0
   10.3850    4.6575   23.2386 O   0  0  0  0  0  0  0  0  0  0  0  0
    4.2069    6.8450   20.7994 C   0  0  0  0  0  0  0  0  0  0  0  0
    3.0726   10.1043   19.8522 O   0  0  0  0  0  0  0  0  0  0  0  0
    5.5057    7.1196   21.1155 C   0  0  0  0  0  0  0  0  0  0  0  0
    7.0367   11.0229   21.9948 O   0  0  0  0  0  0  0  0  0  0  0  0
  1  8  4  0
  1 12  4  0
  2  9  1  0
  2 11  4  0
  2 25  4  0
  3 12  4  0
  3 14  1  0
  3 23  4  0
  4 13  4  0
  4 21  4  0
  4 24  1  0
  5  8  4  0
  5 23  4  0
  6 18  2  0
  7 15  4  0
  7 16  1  0
  7 27  4  0
  8 18  1  0
 10 18  1  0
 10 20  1  0
 11 15  4  0
 11 26  1  0
 13 22  4  0
 16 19  1  0
 16 20  2  0
 17 19  4  0
 17 21  4  0
 19 22  4  0
 20 28  1  0
 25 27  4  0
M  END
$$$$

 Created by Python create_sdf_string function

 28 30  0  0  0  0  0  0  0  0999 V2000
   11.4592   11.2893   18.7941 C   0  0  0  0  0  0  0  0  0  0  0  0
    3.4202    7.9009   20.3866 C   0  0  0  0  0  0  0  0  0  0  0  0
   13.5280   10.3522   19.3586 C   0  0  0  0  0  0  0  0  0  0  0  0
    9.6923    5.6468   22.7891 C   0  0  0  0  0  0  0  0  0  0  0  0
   11.7756   10.2554   20.8841 N   0  0  0  0  0  0  0  0  0  0  0  0
    8.9876   11.9370   19.8757 O   0  0  0  0  0  0  0  0  0  0  0  0
    6.0167    8.4478   21.1089 C   0  0  0  0  0  0  0  0  0  0  0  0
   11.0002   10.8890   20.0262 C   0  0  0  0  0  0  0  0  0  0  0  0
    2.1721    7.7393   20.0315 O   0  0  0  0  0  0  0  0  0  0  0  0
    9.1107   10.3880   21.3769 N   0  0  0  0  0  0  0  0  0  0  0  0
    3.9102    9.2008   20.3124 C   0  0  0  0  0  0  0  0  0  0  0  0
   12.7292   10.9960   18.4597 C   0  0  0  0  0  0  0  0  0  0  0  0
    9.3798    6.6793   23.6625 C   0  0  0  0  0  0  0  0  0  0  0  0
   14.7425   10.0739   19.0802 O   0  0  0  0  0  0  0  0  0  0  0  0
    5.1894    9.4673   20.7118 C   0  0  0  0  0  0  0  0  0  0  0  0
    7.3773    8.8224   21.4870 C   0  0  0  0  0  0  0  0  0  0  0  0
    8.4391    6.6439   21.0235 C   0  0  0  0  0  0  0  0  0  0  0  0
    9.6494   11.1353   20.4167 C   0  0  0  0  0  0  0  0  0  0  0  0
    8.1431    7.6829   21.9046 C   0  0  0  0  0  0  0  0  0  0  0  0
    7.7796   10.1314   21.5115 N   0  0  0  0  0  0  0  0  0  0  0  0
    9.2768    5.6183   21.4437 C   0  0  0  0  0  0  0  0  0  0  0  0
    8.6315    7.7322   23.1768 C   0  0  0  0  0  0  0  0  0  0  0  0
   13.0537    9.9821   20.5781 C   0  0  0  0  0  0  0  0  0  0  0  0
   10.3850    4.6575   23.2386 O   0  0  0  0  0  0  0  0  0  0  0  0
    4.2069    6.8450   20.7994 C   0  0  0  0  0  0  0  0  0  0  0  0
    3.0726   10.1043   19.8522 O   0  0  0  0  0  0  0  0  0  0  0  0
    5.5057    7.1196   21.1155 C   0  0  0  0  0  0  0  0  0  0  0  0
    7.0367   11.0229   21.9948 O   0  0  0  0  0  0  0  0  0  0  0  0
  1  8  4  0
  1 12  4  0
  2  9  1  0
  2 11  4  0
  2 25  4  0
  3 12  4  0
  3 14  1  0
  3 23  4  0
  4 13  4  0
  4 21  4  0
  4 24  1  0
  5  8  4  0
  5 23  4  0
  6 18  2  0
  7 15  4  0
  7 16  1  0
  7 27  4  0
  8 18  1  0
 10 18  1  0
 10 20  1  0
 11 15  4  0
 11 26  1  0
 13 22  4  0
 16 19  1  0
 16 20  2  0
 17 19  4  0
 17 21  4  0
 19 22  4  0
 20 28  1  0
 25 27  4  0
M  END
$$$$

 Created by Python create_sdf_string function

 28 30  0  0  0  0  0  0  0  0999 V2000
   11.4592   11.2893   18.7941 C   0  0  0  0  0  0  0  0  0  0  0  0
    3.4202    7.9009   20.3866 C   0  0  0  0  0  0  0  0  0  0  0  0
   13.5280   10.3522   19.3586 C   0  0  0  0  0  0  0  0  0  0  0  0
    9.6923    5.6468   22.7891 C   0  0  0  0  0  0  0  0  0  0  0  0
   11.7756   10.2554   20.8841 N   0  0  0  0  0  0  0  0  0  0  0  0
    8.9876   11.9370   19.8757 O   0  0  0  0  0  0  0  0  0  0  0  0
    6.0167    8.4478   21.1089 C   0  0  0  0  0  0  0  0  0  0  0  0
   11.0002   10.8890   20.0262 C   0  0  0  0  0  0  0  0  0  0  0  0
    2.1721    7.7393   20.0315 O   0  0  0  0  0  0  0  0  0  0  0  0
    9.1107   10.3880   21.3769 N   0  0  0  0  0  0  0  0  0  0  0  0
    3.9102    9.2008   20.3124 C   0  0  0  0  0  0  0  0  0  0  0  0
   12.7292   10.9960   18.4597 C   0  0  0  0  0  0  0  0  0  0  0  0
    9.3798    6.6793   23.6625 C   0  0  0  0  0  0  0  0  0  0  0  0
   14.7425   10.0739   19.0802 O   0  0  0  0  0  0  0  0  0  0  0  0
    5.1894    9.4673   20.7118 C   0  0  0  0  0  0  0  0  0  0  0  0
    7.3773    8.8224   21.4870 C   0  0  0  0  0  0  0  0  0  0  0  0
    8.4391    6.6439   21.0235 C   0  0  0  0  0  0  0  0  0  0  0  0
    9.6494   11.1353   20.4167 C   0  0  0  0  0  0  0  0  0  0  0  0
    8.1431    7.6829   21.9046 C   0  0  0  0  0  0  0  0  0  0  0  0
    7.7796   10.1314   21.5115 N   0  0  0  0  0  0  0  0  0  0  0  0
    9.2768    5.6183   21.4437 C   0  0  0  0  0  0  0  0  0  0  0  0
    8.6315    7.7322   23.1768 C   0  0  0  0  0  0  0  0  0  0  0  0
   13.0537    9.9821   20.5781 C   0  0  0  0  0  0  0  0  0  0  0  0
   10.3850    4.6575   23.2386 O   0  0  0  0  0  0  0  0  0  0  0  0
    4.2069    6.8450   20.7994 C   0  0  0  0  0  0  0  0  0  0  0  0
    3.0726   10.1043   19.8522 O   0  0  0  0  0  0  0  0  0  0  0  0
    5.5057    7.1196   21.1155 C   0  0  0  0  0  0  0  0  0  0  0  0
    7.0367   11.0229   21.9948 O   0  0  0  0  0  0  0  0  0  0  0  0
  1  8  4  0
  1 12  4  0
  2  9  1  0
  2 11  4  0
  2 25  4  0
  3 12  4  0
  3 14  1  0
  3 23  4  0
  4 13  4  0
  4 21  4  0
  4 24  1  0
  5  8  4  0
  5 23  4  0
  6 18  2  0
  7 15  4  0
  7 16  1  0
  7 27  4  0
  8 18  1  0
 10 18  1  0
 10 20  1  0
 11 15  4  0
 11 26  1  0
 13 22  4  0
 16 19  1  0
 16 20  2  0
 17 19  4  0
 17 21  4  0
 19 22  4  0
 20 28  1  0
 25 27  4  0
M  END
$$$$

 Created by Python create_sdf_string function

 28 30  0  0  0  0  0  0  0  0999 V2000
   11.4592   11.2893   18.7941 C   0  0  0  0  0  0  0  0  0  0  0  0
    3.4202    7.9009   20.3866 C   0  0  0  0  0  0  0  0  0  0  0  0
   13.5280   10.3522   19.3586 C   0  0  0  0  0  0  0  0  0  0  0  0
    9.6923    5.6468   22.7891 C   0  0  0  0  0  0  0  0  0  0  0  0
   11.7756   10.2554   20.8841 N   0  0  0  0  0  0  0  0  0  0  0  0
    8.9876   11.9370   19.8757 O   0  0  0  0  0  0  0  0  0  0  0  0
    6.0167    8.4478   21.1089 C   0  0  0  0  0  0  0  0  0  0  0  0
   11.0002   10.8890   20.0262 C   0  0  0  0  0  0  0  0  0  0  0  0
    2.1721    7.7393   20.0315 O   0  0  0  0  0  0  0  0  0  0  0  0
    9.1107   10.3880   21.3769 N   0  0  0  0  0  0  0  0  0  0  0  0
    3.9102    9.2008   20.3124 C   0  0  0  0  0  0  0  0  0  0  0  0
   12.7292   10.9960   18.4597 C   0  0  0  0  0  0  0  0  0  0  0  0
    9.3798    6.6793   23.6625 C   0  0  0  0  0  0  0  0  0  0  0  0
   14.7425   10.0739   19.0802 O   0  0  0  0  0  0  0  0  0  0  0  0
    5.1894    9.4673   20.7118 C   0  0  0  0  0  0  0  0  0  0  0  0
    7.3773    8.8224   21.4870 C   0  0  0  0  0  0  0  0  0  0  0  0
    8.4391    6.6439   21.0235 C   0  0  0  0  0  0  0  0  0  0  0  0
    9.6494   11.1353   20.4167 C   0  0  0  0  0  0  0  0  0  0  0  0
    8.1431    7.6829   21.9046 C   0  0  0  0  0  0  0  0  0  0  0  0
    7.7796   10.1314   21.5115 N   0  0  0  0  0  0  0  0  0  0  0  0
    9.2768    5.6183   21.4437 C   0  0  0  0  0  0  0  0  0  0  0  0
    8.6315    7.7322   23.1768 C   0  0  0  0  0  0  0  0  0  0  0  0
   13.0537    9.9821   20.5781 C   0  0  0  0  0  0  0  0  0  0  0  0
   10.3850    4.6575   23.2386 O   0  0  0  0  0  0  0  0  0  0  0  0
    4.2069    6.8450   20.7994 C   0  0  0  0  0  0  0  0  0  0  0  0
    3.0726   10.1043   19.8522 O   0  0  0  0  0  0  0  0  0  0  0  0
    5.5057    7.1196   21.1155 C   0  0  0  0  0  0  0  0  0  0  0  0
    7.0367   11.0229   21.9948 O   0  0  0  0  0  0  0  0  0  0  0  0
  1  8  4  0
  1 12  4  0
  2  9  1  0
  2 11  4  0
  2 25  4  0
  3 12  4  0
  3 14  1  0
  3 23  4  0
  4 13  4  0
  4 21  4  0
  4 24  1  0
  5  8  4  0
  5 23  4  0
  6 18  2  0
  7 15  4  0
  7 16  1  0
  7 27  4  0
  8 18  1  0
 10 18  1  0
 10 20  1  0
 11 15  4  0
 11 26  1  0
 13 22  4  0
 16 19  1  0
 16 20  2  0
 17 19  4  0
 17 21  4  0
 19 22  4  0
 20 28  1  0
 25 27  4  0
M  END
$$$$

 Created by Python create_sdf_string function

 28 30  0  0  0  0  0  0  0  0999 V2000
   11.4592   11.2893   18.7941 C   0  0  0  0  0  0  0  0  0  0  0  0
    3.4202    7.9009   20.3866 C   0  0  0  0  0  0  0  0  0  0  0  0
   13.5280   10.3522   19.3586 C   0  0  0  0  0  0  0  0  0  0  0  0
    9.6923    5.6468   22.7891 C   0  0  0  0  0  0  0  0  0  0  0  0
   11.7756   10.2554   20.8841 N   0  0  0  0  0  0  0  0  0  0  0  0
    8.9876   11.9370   19.8757 O   0  0  0  0  0  0  0  0  0  0  0  0
    6.0167    8.4478   21.1089 C   0  0  0  0  0  0  0  0  0  0  0  0
   11.0002   10.8890   20.0262 C   0  0  0  0  0  0  0  0  0  0  0  0
    2.1721    7.7393   20.0315 O   0  0  0  0  0  0  0  0  0  0  0  0
    9.1107   10.3880   21.3769 N   0  0  0  0  0  0  0  0  0  0  0  0
    3.9102    9.2008   20.3124 C   0  0  0  0  0  0  0  0  0  0  0  0
   12.7292   10.9960   18.4597 C   0  0  0  0  0  0  0  0  0  0  0  0
    9.3798    6.6793   23.6625 C   0  0  0  0  0  0  0  0  0  0  0  0
   14.7425   10.0739   19.0802 O   0  0  0  0  0  0  0  0  0  0  0  0
    5.1894    9.4673   20.7118 C   0  0  0  0  0  0  0  0  0  0  0  0
    7.3773    8.8224   21.4870 C   0  0  0  0  0  0  0  0  0  0  0  0
    8.4391    6.6439   21.0235 C   0  0  0  0  0  0  0  0  0  0  0  0
    9.6494   11.1353   20.4167 C   0  0  0  0  0  0  0  0  0  0  0  0
    8.1431    7.6829   21.9046 C   0  0  0  0  0  0  0  0  0  0  0  0
    7.7796   10.1314   21.5115 N   0  0  0  0  0  0  0  0  0  0  0  0
    9.2768    5.6183   21.4437 C   0  0  0  0  0  0  0  0  0  0  0  0
    8.6315    7.7322   23.1768 C   0  0  0  0  0  0  0  0  0  0  0  0
   13.0537    9.9821   20.5781 C   0  0  0  0  0  0  0  0  0  0  0  0
   10.3850    4.6575   23.2386 O   0  0  0  0  0  0  0  0  0  0  0  0
    4.2069    6.8450   20.7994 C   0  0  0  0  0  0  0  0  0  0  0  0
    3.0726   10.1043   19.8522 O   0  0  0  0  0  0  0  0  0  0  0  0
    5.5057    7.1196   21.1155 C   0  0  0  0  0  0  0  0  0  0  0  0
    7.0367   11.0229   21.9948 O   0  0  0  0  0  0  0  0  0  0  0  0
  1  8  4  0
  1 12  4  0
  2  9  1  0
  2 11  4  0
  2 25  4  0
  3 12  4  0
  3 14  1  0
  3 23  4  0
  4 13  4  0
  4 21  4  0
  4 24  1  0
  5  8  4  0
  5 23  4  0
  6 18  2  0
  7 15  4  0
  7 16  1  0
  7 27  4  0
  8 18  1  0
 10 18  1  0
 10 20  1  0
 11 15  4  0
 11 26  1  0
 13 22  4  0
 16 19  1  0
 16 20  2  0
 17 19  4  0
 17 21  4  0
 19 22  4  0
 20 28  1  0
 25 27  4  0
M  END
$$$$

 Created by Python create_sdf_string function

 28 30  0  0  0  0  0  0  0  0999 V2000
   11.4592   11.2893   18.7941 C   0  0  0  0  0  0  0  0  0  0  0  0
    3.4202    7.9009   20.3866 C   0  0  0  0  0  0  0  0  0  0  0  0
   13.5280   10.3522   19.3586 C   0  0  0  0  0  0  0  0  0  0  0  0
    9.6923    5.6468   22.7891 C   0  0  0  0  0  0  0  0  0  0  0  0
   11.7756   10.2554   20.8841 N   0  0  0  0  0  0  0  0  0  0  0  0
    8.9876   11.9370   19.8757 O   0  0  0  0  0  0  0  0  0  0  0  0
    6.0167    8.4478   21.1089 C   0  0  0  0  0  0  0  0  0  0  0  0
   11.0002   10.8890   20.0262 C   0  0  0  0  0  0  0  0  0  0  0  0
    2.1721    7.7393   20.0315 O   0  0  0  0  0  0  0  0  0  0  0  0
    9.1107   10.3880   21.3769 N   0  0  0  0  0  0  0  0  0  0  0  0
    3.9102    9.2008   20.3124 C   0  0  0  0  0  0  0  0  0  0  0  0
   12.7292   10.9960   18.4597 C   0  0  0  0  0  0  0  0  0  0  0  0
    9.3798    6.6793   23.6625 C   0  0  0  0  0  0  0  0  0  0  0  0
   14.7425   10.0739   19.0802 O   0  0  0  0  0  0  0  0  0  0  0  0
    5.1894    9.4673   20.7118 C   0  0  0  0  0  0  0  0  0  0  0  0
    7.3773    8.8224   21.4870 C   0  0  0  0  0  0  0  0  0  0  0  0
    8.4391    6.6439   21.0235 C   0  0  0  0  0  0  0  0  0  0  0  0
    9.6494   11.1353   20.4167 C   0  0  0  0  0  0  0  0  0  0  0  0
    8.1431    7.6829   21.9046 C   0  0  0  0  0  0  0  0  0  0  0  0
    7.7796   10.1314   21.5115 N   0  0  0  0  0  0  0  0  0  0  0  0
    9.2768    5.6183   21.4437 C   0  0  0  0  0  0  0  0  0  0  0  0
    8.6315    7.7322   23.1768 C   0  0  0  0  0  0  0  0  0  0  0  0
   13.0537    9.9821   20.5781 C   0  0  0  0  0  0  0  0  0  0  0  0
   10.3850    4.6575   23.2386 O   0  0  0  0  0  0  0  0  0  0  0  0
    4.2069    6.8450   20.7994 C   0  0  0  0  0  0  0  0  0  0  0  0
    3.0726   10.1043   19.8522 O   0  0  0  0  0  0  0  0  0  0  0  0
    5.5057    7.1196   21.1155 C   0  0  0  0  0  0  0  0  0  0  0  0
    7.0367   11.0229   21.9948 O   0  0  0  0  0  0  0  0  0  0  0  0
  1  8  4  0
  1 12  4  0
  2  9  1  0
  2 11  4  0
  2 25  4  0
  3 12  4  0
  3 14  1  0
  3 23  4  0
  4 13  4  0
  4 21  4  0
  4 24  1  0
  5  8  4  0
  5 23  4  0
  6 18  2  0
  7 15  4  0
  7 16  1  0
  7 27  4  0
  8 18  1  0
 10 18  1  0
 10 20  1  0
 11 15  4  0
 11 26  1  0
 13 22  4  0
 16 19  1  0
 16 20  2  0
 17 19  4  0
 17 21  4  0
 19 22  4  0
 20 28  1  0
 25 27  4  0
M  END
$$$$

 Created by Python create_sdf_string function

 28 30  0  0  0  0  0  0  0  0999 V2000
   11.4592   11.2893   18.7941 C   0  0  0  0  0  0  0  0  0  0  0  0
    3.4202    7.9009   20.3866 C   0  0  0  0  0  0  0  0  0  0  0  0
   13.5280   10.3522   19.3586 C   0  0  0  0  0  0  0  0  0  0  0  0
    9.6923    5.6468   22.7891 C   0  0  0  0  0  0  0  0  0  0  0  0
   11.7756   10.2554   20.8841 N   0  0  0  0  0  0  0  0  0  0  0  0
    8.9876   11.9370   19.8757 O   0  0  0  0  0  0  0  0  0  0  0  0
    6.0167    8.4478   21.1089 C   0  0  0  0  0  0  0  0  0  0  0  0
   11.0002   10.8890   20.0262 C   0  0  0  0  0  0  0  0  0  0  0  0
    2.1721    7.7393   20.0315 O   0  0  0  0  0  0  0  0  0  0  0  0
    9.1107   10.3880   21.3769 N   0  0  0  0  0  0  0  0  0  0  0  0
    3.9102    9.2008   20.3124 C   0  0  0  0  0  0  0  0  0  0  0  0
   12.7292   10.9960   18.4597 C   0  0  0  0  0  0  0  0  0  0  0  0
    9.3798    6.6793   23.6625 C   0  0  0  0  0  0  0  0  0  0  0  0
   14.7425   10.0739   19.0802 O   0  0  0  0  0  0  0  0  0  0  0  0
    5.1894    9.4673   20.7118 C   0  0  0  0  0  0  0  0  0  0  0  0
    7.3773    8.8224   21.4870 C   0  0  0  0  0  0  0  0  0  0  0  0
    8.4391    6.6439   21.0235 C   0  0  0  0  0  0  0  0  0  0  0  0
    9.6494   11.1353   20.4167 C   0  0  0  0  0  0  0  0  0  0  0  0
    8.1431    7.6829   21.9046 C   0  0  0  0  0  0  0  0  0  0  0  0
    7.7796   10.1314   21.5115 N   0  0  0  0  0  0  0  0  0  0  0  0
    9.2768    5.6183   21.4437 C   0  0  0  0  0  0  0  0  0  0  0  0
    8.6315    7.7322   23.1768 C   0  0  0  0  0  0  0  0  0  0  0  0
   13.0537    9.9821   20.5781 C   0  0  0  0  0  0  0  0  0  0  0  0
   10.3850    4.6575   23.2386 O   0  0  0  0  0  0  0  0  0  0  0  0
    4.2069    6.8450   20.7994 C   0  0  0  0  0  0  0  0  0  0  0  0
    3.0726   10.1043   19.8522 O   0  0  0  0  0  0  0  0  0  0  0  0
    5.5057    7.1196   21.1155 C   0  0  0  0  0  0  0  0  0  0  0  0
    7.0367   11.0229   21.9948 O   0  0  0  0  0  0  0  0  0  0  0  0
  1  8  4  0
  1 12  4  0
  2  9  1  0
  2 11  4  0
  2 25  4  0
  3 12  4  0
  3 14  1  0
  3 23  4  0
  4 13  4  0
  4 21  4  0
  4 24  1  0
  5  8  4  0
  5 23  4  0
  6 18  2  0
  7 15  4  0
  7 16  1  0
  7 27  4  0
  8 18  1  0
 10 18  1  0
 10 20  1  0
 11 15  4  0
 11 26  1  0
 13 22  4  0
 16 19  1  0
 16 20  2  0
 17 19  4  0
 17 21  4  0
 19 22  4  0
 20 28  1  0
 25 27  4  0
M  END
$$$$

 Created by Python create_sdf_string function

 28 30  0  0  0  0  0  0  0  0999 V2000
   11.4592   11.2893   18.7941 C   0  0  0  0  0  0  0  0  0  0  0  0
    3.4202    7.9009   20.3866 C   0  0  0  0  0  0  0  0  0  0  0  0
   13.5280   10.3522   19.3586 C   0  0  0  0  0  0  0  0  0  0  0  0
    9.6923    5.6468   22.7891 C   0  0  0  0  0  0  0  0  0  0  0  0
   11.7756   10.2554   20.8841 N   0  0  0  0  0  0  0  0  0  0  0  0
    8.9876   11.9370   19.8757 O   0  0  0  0  0  0  0  0  0  0  0  0
    6.0167    8.4478   21.1089 C   0  0  0  0  0  0  0  0  0  0  0  0
   11.0002   10.8890   20.0262 C   0  0  0  0  0  0  0  0  0  0  0  0
    2.1721    7.7393   20.0315 O   0  0  0  0  0  0  0  0  0  0  0  0
    9.1107   10.3880   21.3769 N   0  0  0  0  0  0  0  0  0  0  0  0
    3.9102    9.2008   20.3124 C   0  0  0  0  0  0  0  0  0  0  0  0
   12.7292   10.9960   18.4597 C   0  0  0  0  0  0  0  0  0  0  0  0
    9.3798    6.6793   23.6625 C   0  0  0  0  0  0  0  0  0  0  0  0
   14.7425   10.0739   19.0802 O   0  0  0  0  0  0  0  0  0  0  0  0
    5.1894    9.4673   20.7118 C   0  0  0  0  0  0  0  0  0  0  0  0
    7.3773    8.8224   21.4870 C   0  0  0  0  0  0  0  0  0  0  0  0
    8.4391    6.6439   21.0235 C   0  0  0  0  0  0  0  0  0  0  0  0
    9.6494   11.1353   20.4167 C   0  0  0  0  0  0  0  0  0  0  0  0
    8.1431    7.6829   21.9046 C   0  0  0  0  0  0  0  0  0  0  0  0
    7.7796   10.1314   21.5115 N   0  0  0  0  0  0  0  0  0  0  0  0
    9.2768    5.6183   21.4437 C   0  0  0  0  0  0  0  0  0  0  0  0
    8.6315    7.7322   23.1768 C   0  0  0  0  0  0  0  0  0  0  0  0
   13.0537    9.9821   20.5781 C   0  0  0  0  0  0  0  0  0  0  0  0
   10.3850    4.6575   23.2386 O   0  0  0  0  0  0  0  0  0  0  0  0
    4.2069    6.8450   20.7994 C   0  0  0  0  0  0  0  0  0  0  0  0
    3.0726   10.1043   19.8522 O   0  0  0  0  0  0  0  0  0  0  0  0
    5.5057    7.1196   21.1155 C   0  0  0  0  0  0  0  0  0  0  0  0
    7.0367   11.0229   21.9948 O   0  0  0  0  0  0  0  0  0  0  0  0
  1  8  4  0
  1 12  4  0
  2  9  1  0
  2 11  4  0
  2 25  4  0
  3 12  4  0
  3 14  1  0
  3 23  4  0
  4 13  4  0
  4 21  4  0
  4 24  1  0
  5  8  4  0
  5 23  4  0
  6 18  2  0
  7 15  4  0
  7 16  1  0
  7 27  4  0
  8 18  1  0
 10 18  1  0
 10 20  1  0
 11 15  4  0
 11 26  1  0
 13 22  4  0
 16 19  1  0
 16 20  2  0
 17 19  4  0
 17 21  4  0
 19 22  4  0
 20 28  1  0
 25 27  4  0
M  END
$$$$

 Created by Python create_sdf_string function

 28 30  0  0  0  0  0  0  0  0999 V2000
   11.4592   11.2893   18.7941 C   0  0  0  0  0  0  0  0  0  0  0  0
    3.4202    7.9009   20.3866 C   0  0  0  0  0  0  0  0  0  0  0  0
   13.5280   10.3522   19.3586 C   0  0  0  0  0  0  0  0  0  0  0  0
    9.6923    5.6468   22.7891 C   0  0  0  0  0  0  0  0  0  0  0  0
   11.7756   10.2554   20.8841 N   0  0  0  0  0  0  0  0  0  0  0  0
    8.9876   11.9370   19.8757 O   0  0  0  0  0  0  0  0  0  0  0  0
    6.0167    8.4478   21.1089 C   0  0  0  0  0  0  0  0  0  0  0  0
   11.0002   10.8890   20.0262 C   0  0  0  0  0  0  0  0  0  0  0  0
    2.1721    7.7393   20.0315 O   0  0  0  0  0  0  0  0  0  0  0  0
    9.1107   10.3880   21.3769 N   0  0  0  0  0  0  0  0  0  0  0  0
    3.9102    9.2008   20.3124 C   0  0  0  0  0  0  0  0  0  0  0  0
   12.7292   10.9960   18.4597 C   0  0  0  0  0  0  0  0  0  0  0  0
    9.3798    6.6793   23.6625 C   0  0  0  0  0  0  0  0  0  0  0  0
   14.7425   10.0739   19.0802 O   0  0  0  0  0  0  0  0  0  0  0  0
    5.1894    9.4673   20.7118 C   0  0  0  0  0  0  0  0  0  0  0  0
    7.3773    8.8224   21.4870 C   0  0  0  0  0  0  0  0  0  0  0  0
    8.4391    6.6439   21.0235 C   0  0  0  0  0  0  0  0  0  0  0  0
    9.6494   11.1353   20.4167 C   0  0  0  0  0  0  0  0  0  0  0  0
    8.1431    7.6829   21.9046 C   0  0  0  0  0  0  0  0  0  0  0  0
    7.7796   10.1314   21.5115 N   0  0  0  0  0  0  0  0  0  0  0  0
    9.2768    5.6183   21.4437 C   0  0  0  0  0  0  0  0  0  0  0  0
    8.6315    7.7322   23.1768 C   0  0  0  0  0  0  0  0  0  0  0  0
   13.0537    9.9821   20.5781 C   0  0  0  0  0  0  0  0  0  0  0  0
   10.3850    4.6575   23.2386 O   0  0  0  0  0  0  0  0  0  0  0  0
    4.2069    6.8450   20.7994 C   0  0  0  0  0  0  0  0  0  0  0  0
    3.0726   10.1043   19.8522 O   0  0  0  0  0  0  0  0  0  0  0  0
    5.5057    7.1196   21.1155 C   0  0  0  0  0  0  0  0  0  0  0  0
    7.0367   11.0229   21.9948 O   0  0  0  0  0  0  0  0  0  0  0  0
  1  8  4  0
  1 12  4  0
  2  9  1  0
  2 11  4  0
  2 25  4  0
  3 12  4  0
  3 14  1  0
  3 23  4  0
  4 13  4  0
  4 21  4  0
  4 24  1  0
  5  8  4  0
  5 23  4  0
  6 18  2  0
  7 15  4  0
  7 16  1  0
  7 27  4  0
  8 18  1  0
 10 18  1  0
 10 20  1  0
 11 15  4  0
 11 26  1  0
 13 22  4  0
 16 19  1  0
 16 20  2  0
 17 19  4  0
 17 21  4  0
 19 22  4  0
 20 28  1  0
 25 27  4  0
M  END
$$$$

 Created by Python create_sdf_string function

 28 30  0  0  0  0  0  0  0  0999 V2000
   11.4592   11.2893   18.7941 C   0  0  0  0  0  0  0  0  0  0  0  0
    3.4202    7.9009   20.3866 C   0  0  0  0  0  0  0  0  0  0  0  0
   13.5280   10.3522   19.3586 C   0  0  0  0  0  0  0  0  0  0  0  0
    9.6923    5.6468   22.7891 C   0  0  0  0  0  0  0  0  0  0  0  0
   11.7756   10.2554   20.8841 N   0  0  0  0  0  0  0  0  0  0  0  0
    8.9876   11.9370   19.8757 O   0  0  0  0  0  0  0  0  0  0  0  0
    6.0167    8.4478   21.1089 C   0  0  0  0  0  0  0  0  0  0  0  0
   11.0002   10.8890   20.0262 C   0  0  0  0  0  0  0  0  0  0  0  0
    2.1721    7.7393   20.0315 O   0  0  0  0  0  0  0  0  0  0  0  0
    9.1107   10.3880   21.3769 N   0  0  0  0  0  0  0  0  0  0  0  0
    3.9102    9.2008   20.3124 C   0  0  0  0  0  0  0  0  0  0  0  0
   12.7292   10.9960   18.4597 C   0  0  0  0  0  0  0  0  0  0  0  0
    9.3798    6.6793   23.6625 C   0  0  0  0  0  0  0  0  0  0  0  0
   14.7425   10.0739   19.0802 O   0  0  0  0  0  0  0  0  0  0  0  0
    5.1894    9.4673   20.7118 C   0  0  0  0  0  0  0  0  0  0  0  0
    7.3773    8.8224   21.4870 C   0  0  0  0  0  0  0  0  0  0  0  0
    8.4391    6.6439   21.0235 C   0  0  0  0  0  0  0  0  0  0  0  0
    9.6494   11.1353   20.4167 C   0  0  0  0  0  0  0  0  0  0  0  0
    8.1431    7.6829   21.9046 C   0  0  0  0  0  0  0  0  0  0  0  0
    7.7796   10.1314   21.5115 N   0  0  0  0  0  0  0  0  0  0  0  0
    9.2768    5.6183   21.4437 C   0  0  0  0  0  0  0  0  0  0  0  0
    8.6315    7.7322   23.1768 C   0  0  0  0  0  0  0  0  0  0  0  0
   13.0537    9.9821   20.5781 C   0  0  0  0  0  0  0  0  0  0  0  0
   10.3850    4.6575   23.2386 O   0  0  0  0  0  0  0  0  0  0  0  0
    4.2069    6.8450   20.7994 C   0  0  0  0  0  0  0  0  0  0  0  0
    3.0726   10.1043   19.8522 O   0  0  0  0  0  0  0  0  0  0  0  0
    5.5057    7.1196   21.1155 C   0  0  0  0  0  0  0  0  0  0  0  0
    7.0367   11.0229   21.9948 O   0  0  0  0  0  0  0  0  0  0  0  0
  1  8  4  0
  1 12  4  0
  2  9  1  0
  2 11  4  0
  2 25  4  0
  3 12  4  0
  3 14  1  0
  3 23  4  0
  4 13  4  0
  4 21  4  0
  4 24  1  0
  5  8  4  0
  5 23  4  0
  6 18  2  0
  7 15  4  0
  7 16  1  0
  7 27  4  0
  8 18  1  0
 10 18  1  0
 10 20  1  0
 11 15  4  0
 11 26  1  0
 13 22  4  0
 16 19  1  0
 16 20  2  0
 17 19  4  0
 17 21  4  0
 19 22  4  0
 20 28  1  0
 25 27  4  0
M  END
$$$$

 Created by Python create_sdf_string function

 28 30  0  0  0  0  0  0  0  0999 V2000
   11.4592   11.2893   18.7941 C   0  0  0  0  0  0  0  0  0  0  0  0
    3.4202    7.9009   20.3866 C   0  0  0  0  0  0  0  0  0  0  0  0
   13.5280   10.3522   19.3586 C   0  0  0  0  0  0  0  0  0  0  0  0
    9.6923    5.6468   22.7891 C   0  0  0  0  0  0  0  0  0  0  0  0
   11.7756   10.2554   20.8841 N   0  0  0  0  0  0  0  0  0  0  0  0
    8.9876   11.9370   19.8757 O   0  0  0  0  0  0  0  0  0  0  0  0
    6.0167    8.4478   21.1089 C   0  0  0  0  0  0  0  0  0  0  0  0
   11.0002   10.8890   20.0262 C   0  0  0  0  0  0  0  0  0  0  0  0
    2.1721    7.7393   20.0315 O   0  0  0  0  0  0  0  0  0  0  0  0
    9.1107   10.3880   21.3769 N   0  0  0  0  0  0  0  0  0  0  0  0
    3.9102    9.2008   20.3124 C   0  0  0  0  0  0  0  0  0  0  0  0
   12.7292   10.9960   18.4597 C   0  0  0  0  0  0  0  0  0  0  0  0
    9.3798    6.6793   23.6625 C   0  0  0  0  0  0  0  0  0  0  0  0
   14.7425   10.0739   19.0802 O   0  0  0  0  0  0  0  0  0  0  0  0
    5.1894    9.4673   20.7118 C   0  0  0  0  0  0  0  0  0  0  0  0
    7.3773    8.8224   21.4870 C   0  0  0  0  0  0  0  0  0  0  0  0
    8.4391    6.6439   21.0235 C   0  0  0  0  0  0  0  0  0  0  0  0
    9.6494   11.1353   20.4167 C   0  0  0  0  0  0  0  0  0  0  0  0
    8.1431    7.6829   21.9046 C   0  0  0  0  0  0  0  0  0  0  0  0
    7.7796   10.1314   21.5115 N   0  0  0  0  0  0  0  0  0  0  0  0
    9.2768    5.6183   21.4437 C   0  0  0  0  0  0  0  0  0  0  0  0
    8.6315    7.7322   23.1768 C   0  0  0  0  0  0  0  0  0  0  0  0
   13.0537    9.9821   20.5781 C   0  0  0  0  0  0  0  0  0  0  0  0
   10.3850    4.6575   23.2386 O   0  0  0  0  0  0  0  0  0  0  0  0
    4.2069    6.8450   20.7994 C   0  0  0  0  0  0  0  0  0  0  0  0
    3.0726   10.1043   19.8522 O   0  0  0  0  0  0  0  0  0  0  0  0
    5.5057    7.1196   21.1155 C   0  0  0  0  0  0  0  0  0  0  0  0
    7.0367   11.0229   21.9948 O   0  0  0  0  0  0  0  0  0  0  0  0
  1  8  4  0
  1 12  4  0
  2  9  1  0
  2 11  4  0
  2 25  4  0
  3 12  4  0
  3 14  1  0
  3 23  4  0
  4 13  4  0
  4 21  4  0
  4 24  1  0
  5  8  4  0
  5 23  4  0
  6 18  2  0
  7 15  4  0
  7 16  1  0
  7 27  4  0
  8 18  1  0
 10 18  1  0
 10 20  1  0
 11 15  4  0
 11 26  1  0
 13 22  4  0
 16 19  1  0
 16 20  2  0
 17 19  4  0
 17 21  4  0
 19 22  4  0
 20 28  1  0
 25 27  4  0
M  END
$$$$

 Created by Python create_sdf_string function

 28 30  0  0  0  0  0  0  0  0999 V2000
   11.4592   11.2893   18.7941 C   0  0  0  0  0  0  0  0  0  0  0  0
    3.4202    7.9009   20.3866 C   0  0  0  0  0  0  0  0  0  0  0  0
   13.5280   10.3522   19.3586 C   0  0  0  0  0  0  0  0  0  0  0  0
    9.6923    5.6468   22.7891 C   0  0  0  0  0  0  0  0  0  0  0  0
   11.7756   10.2554   20.8841 N   0  0  0  0  0  0  0  0  0  0  0  0
    8.9876   11.9370   19.8757 O   0  0  0  0  0  0  0  0  0  0  0  0
    6.0167    8.4478   21.1089 C   0  0  0  0  0  0  0  0  0  0  0  0
   11.0002   10.8890   20.0262 C   0  0  0  0  0  0  0  0  0  0  0  0
    2.1721    7.7393   20.0315 O   0  0  0  0  0  0  0  0  0  0  0  0
    9.1107   10.3880   21.3769 N   0  0  0  0  0  0  0  0  0  0  0  0
    3.9102    9.2008   20.3124 C   0  0  0  0  0  0  0  0  0  0  0  0
   12.7292   10.9960   18.4597 C   0  0  0  0  0  0  0  0  0  0  0  0
    9.3798    6.6793   23.6625 C   0  0  0  0  0  0  0  0  0  0  0  0
   14.7425   10.0739   19.0802 O   0  0  0  0  0  0  0  0  0  0  0  0
    5.1894    9.4673   20.7118 C   0  0  0  0  0  0  0  0  0  0  0  0
    7.3773    8.8224   21.4870 C   0  0  0  0  0  0  0  0  0  0  0  0
    8.4391    6.6439   21.0235 C   0  0  0  0  0  0  0  0  0  0  0  0
    9.6494   11.1353   20.4167 C   0  0  0  0  0  0  0  0  0  0  0  0
    8.1431    7.6829   21.9046 C   0  0  0  0  0  0  0  0  0  0  0  0
    7.7796   10.1314   21.5115 N   0  0  0  0  0  0  0  0  0  0  0  0
    9.2768    5.6183   21.4437 C   0  0  0  0  0  0  0  0  0  0  0  0
    8.6315    7.7322   23.1768 C   0  0  0  0  0  0  0  0  0  0  0  0
   13.0537    9.9821   20.5781 C   0  0  0  0  0  0  0  0  0  0  0  0
   10.3850    4.6575   23.2386 O   0  0  0  0  0  0  0  0  0  0  0  0
    4.2069    6.8450   20.7994 C   0  0  0  0  0  0  0  0  0  0  0  0
    3.0726   10.1043   19.8522 O   0  0  0  0  0  0  0  0  0  0  0  0
    5.5057    7.1196   21.1155 C   0  0  0  0  0  0  0  0  0  0  0  0
    7.0367   11.0229   21.9948 O   0  0  0  0  0  0  0  0  0  0  0  0
  1  8  4  0
  1 12  4  0
  2  9  1  0
  2 11  4  0
  2 25  4  0
  3 12  4  0
  3 14  1  0
  3 23  4  0
  4 13  4  0
  4 21  4  0
  4 24  1  0
  5  8  4  0
  5 23  4  0
  6 18  2  0
  7 15  4  0
  7 16  1  0
  7 27  4  0
  8 18  1  0
 10 18  1  0
 10 20  1  0
 11 15  4  0
 11 26  1  0
 13 22  4  0
 16 19  1  0
 16 20  2  0
 17 19  4  0
 17 21  4  0
 19 22  4  0
 20 28  1  0
 25 27  4  0
M  END
$$$$

 Created by Python create_sdf_string function

 28 30  0  0  0  0  0  0  0  0999 V2000
   11.4592   11.2893   18.7941 C   0  0  0  0  0  0  0  0  0  0  0  0
    3.4202    7.9009   20.3866 C   0  0  0  0  0  0  0  0  0  0  0  0
   13.5280   10.3522   19.3586 C   0  0  0  0  0  0  0  0  0  0  0  0
    9.6923    5.6468   22.7891 C   0  0  0  0  0  0  0  0  0  0  0  0
   11.7756   10.2554   20.8841 N   0  0  0  0  0  0  0  0  0  0  0  0
    8.9876   11.9370   19.8757 O   0  0  0  0  0  0  0  0  0  0  0  0
    6.0167    8.4478   21.1089 C   0  0  0  0  0  0  0  0  0  0  0  0
   11.0002   10.8890   20.0262 C   0  0  0  0  0  0  0  0  0  0  0  0
    2.1721    7.7393   20.0315 O   0  0  0  0  0  0  0  0  0  0  0  0
    9.1107   10.3880   21.3769 N   0  0  0  0  0  0  0  0  0  0  0  0
    3.9102    9.2008   20.3124 C   0  0  0  0  0  0  0  0  0  0  0  0
   12.7292   10.9960   18.4597 C   0  0  0  0  0  0  0  0  0  0  0  0
    9.3798    6.6793   23.6625 C   0  0  0  0  0  0  0  0  0  0  0  0
   14.7425   10.0739   19.0802 O   0  0  0  0  0  0  0  0  0  0  0  0
    5.1894    9.4673   20.7118 C   0  0  0  0  0  0  0  0  0  0  0  0
    7.3773    8.8224   21.4870 C   0  0  0  0  0  0  0  0  0  0  0  0
    8.4391    6.6439   21.0235 C   0  0  0  0  0  0  0  0  0  0  0  0
    9.6494   11.1353   20.4167 C   0  0  0  0  0  0  0  0  0  0  0  0
    8.1431    7.6829   21.9046 C   0  0  0  0  0  0  0  0  0  0  0  0
    7.7796   10.1314   21.5115 N   0  0  0  0  0  0  0  0  0  0  0  0
    9.2768    5.6183   21.4437 C   0  0  0  0  0  0  0  0  0  0  0  0
    8.6315    7.7322   23.1768 C   0  0  0  0  0  0  0  0  0  0  0  0
   13.0537    9.9821   20.5781 C   0  0  0  0  0  0  0  0  0  0  0  0
   10.3850    4.6575   23.2386 O   0  0  0  0  0  0  0  0  0  0  0  0
    4.2069    6.8450   20.7994 C   0  0  0  0  0  0  0  0  0  0  0  0
    3.0726   10.1043   19.8522 O   0  0  0  0  0  0  0  0  0  0  0  0
    5.5057    7.1196   21.1155 C   0  0  0  0  0  0  0  0  0  0  0  0
    7.0367   11.0229   21.9948 O   0  0  0  0  0  0  0  0  0  0  0  0
  1  8  4  0
  1 12  4  0
  2  9  1  0
  2 11  4  0
  2 25  4  0
  3 12  4  0
  3 14  1  0
  3 23  4  0
  4 13  4  0
  4 21  4  0
  4 24  1  0
  5  8  4  0
  5 23  4  0
  6 18  2  0
  7 15  4  0
  7 16  1  0
  7 27  4  0
  8 18  1  0
 10 18  1  0
 10 20  1  0
 11 15  4  0
 11 26  1  0
 13 22  4  0
 16 19  1  0
 16 20  2  0
 17 19  4  0
 17 21  4  0
 19 22  4  0
 20 28  1  0
 25 27  4  0
M  END
$$$$

 Created by Python create_sdf_string function

 28 30  0  0  0  0  0  0  0  0999 V2000
   11.4592   11.2893   18.7941 C   0  0  0  0  0  0  0  0  0  0  0  0
    3.4202    7.9009   20.3866 C   0  0  0  0  0  0  0  0  0  0  0  0
   13.5280   10.3522   19.3586 C   0  0  0  0  0  0  0  0  0  0  0  0
    9.6923    5.6468   22.7891 C   0  0  0  0  0  0  0  0  0  0  0  0
   11.7756   10.2554   20.8841 N   0  0  0  0  0  0  0  0  0  0  0  0
    8.9876   11.9370   19.8757 O   0  0  0  0  0  0  0  0  0  0  0  0
    6.0167    8.4478   21.1089 C   0  0  0  0  0  0  0  0  0  0  0  0
   11.0002   10.8890   20.0262 C   0  0  0  0  0  0  0  0  0  0  0  0
    2.1721    7.7393   20.0315 O   0  0  0  0  0  0  0  0  0  0  0  0
    9.1107   10.3880   21.3769 N   0  0  0  0  0  0  0  0  0  0  0  0
    3.9102    9.2008   20.3124 C   0  0  0  0  0  0  0  0  0  0  0  0
   12.7292   10.9960   18.4597 C   0  0  0  0  0  0  0  0  0  0  0  0
    9.3798    6.6793   23.6625 C   0  0  0  0  0  0  0  0  0  0  0  0
   14.7425   10.0739   19.0802 O   0  0  0  0  0  0  0  0  0  0  0  0
    5.1894    9.4673   20.7118 C   0  0  0  0  0  0  0  0  0  0  0  0
    7.3773    8.8224   21.4870 C   0  0  0  0  0  0  0  0  0  0  0  0
    8.4391    6.6439   21.0235 C   0  0  0  0  0  0  0  0  0  0  0  0
    9.6494   11.1353   20.4167 C   0  0  0  0  0  0  0  0  0  0  0  0
    8.1431    7.6829   21.9046 C   0  0  0  0  0  0  0  0  0  0  0  0
    7.7796   10.1314   21.5115 N   0  0  0  0  0  0  0  0  0  0  0  0
    9.2768    5.6183   21.4437 C   0  0  0  0  0  0  0  0  0  0  0  0
    8.6315    7.7322   23.1768 C   0  0  0  0  0  0  0  0  0  0  0  0
   13.0537    9.9821   20.5781 C   0  0  0  0  0  0  0  0  0  0  0  0
   10.3850    4.6575   23.2386 O   0  0  0  0  0  0  0  0  0  0  0  0
    4.2069    6.8450   20.7994 C   0  0  0  0  0  0  0  0  0  0  0  0
    3.0726   10.1043   19.8522 O   0  0  0  0  0  0  0  0  0  0  0  0
    5.5057    7.1196   21.1155 C   0  0  0  0  0  0  0  0  0  0  0  0
    7.0367   11.0229   21.9948 O   0  0  0  0  0  0  0  0  0  0  0  0
  1  8  4  0
  1 12  4  0
  2  9  1  0
  2 11  4  0
  2 25  4  0
  3 12  4  0
  3 14  1  0
  3 23  4  0
  4 13  4  0
  4 21  4  0
  4 24  1  0
  5  8  4  0
  5 23  4  0
  6 18  2  0
  7 15  4  0
  7 16  1  0
  7 27  4  0
  8 18  1  0
 10 18  1  0
 10 20  1  0
 11 15  4  0
 11 26  1  0
 13 22  4  0
 16 19  1  0
 16 20  2  0
 17 19  4  0
 17 21  4  0
 19 22  4  0
 20 28  1  0
 25 27  4  0
M  END
$$$$

 Created by Python create_sdf_string function

 28 30  0  0  0  0  0  0  0  0999 V2000
   11.4592   11.2893   18.7941 C   0  0  0  0  0  0  0  0  0  0  0  0
    3.4202    7.9009   20.3866 C   0  0  0  0  0  0  0  0  0  0  0  0
   13.5280   10.3522   19.3586 C   0  0  0  0  0  0  0  0  0  0  0  0
    9.6923    5.6468   22.7891 C   0  0  0  0  0  0  0  0  0  0  0  0
   11.7756   10.2554   20.8841 N   0  0  0  0  0  0  0  0  0  0  0  0
    8.9876   11.9370   19.8757 O   0  0  0  0  0  0  0  0  0  0  0  0
    6.0167    8.4478   21.1089 C   0  0  0  0  0  0  0  0  0  0  0  0
   11.0002   10.8890   20.0262 C   0  0  0  0  0  0  0  0  0  0  0  0
    2.1721    7.7393   20.0315 O   0  0  0  0  0  0  0  0  0  0  0  0
    9.1107   10.3880   21.3769 N   0  0  0  0  0  0  0  0  0  0  0  0
    3.9102    9.2008   20.3124 C   0  0  0  0  0  0  0  0  0  0  0  0
   12.7292   10.9960   18.4597 C   0  0  0  0  0  0  0  0  0  0  0  0
    9.3798    6.6793   23.6625 C   0  0  0  0  0  0  0  0  0  0  0  0
   14.7425   10.0739   19.0802 O   0  0  0  0  0  0  0  0  0  0  0  0
    5.1894    9.4673   20.7118 C   0  0  0  0  0  0  0  0  0  0  0  0
    7.3773    8.8224   21.4870 C   0  0  0  0  0  0  0  0  0  0  0  0
    8.4391    6.6439   21.0235 C   0  0  0  0  0  0  0  0  0  0  0  0
    9.6494   11.1353   20.4167 C   0  0  0  0  0  0  0  0  0  0  0  0
    8.1431    7.6829   21.9046 C   0  0  0  0  0  0  0  0  0  0  0  0
    7.7796   10.1314   21.5115 N   0  0  0  0  0  0  0  0  0  0  0  0
    9.2768    5.6183   21.4437 C   0  0  0  0  0  0  0  0  0  0  0  0
    8.6315    7.7322   23.1768 C   0  0  0  0  0  0  0  0  0  0  0  0
   13.0537    9.9821   20.5781 C   0  0  0  0  0  0  0  0  0  0  0  0
   10.3850    4.6575   23.2386 O   0  0  0  0  0  0  0  0  0  0  0  0
    4.2069    6.8450   20.7994 C   0  0  0  0  0  0  0  0  0  0  0  0
    3.0726   10.1043   19.8522 O   0  0  0  0  0  0  0  0  0  0  0  0
    5.5057    7.1196   21.1155 C   0  0  0  0  0  0  0  0  0  0  0  0
    7.0367   11.0229   21.9948 O   0  0  0  0  0  0  0  0  0  0  0  0
  1  8  4  0
  1 12  4  0
  2  9  1  0
  2 11  4  0
  2 25  4  0
  3 12  4  0
  3 14  1  0
  3 23  4  0
  4 13  4  0
  4 21  4  0
  4 24  1  0
  5  8  4  0
  5 23  4  0
  6 18  2  0
  7 15  4  0
  7 16  1  0
  7 27  4  0
  8 18  1  0
 10 18  1  0
 10 20  1  0
 11 15  4  0
 11 26  1  0
 13 22  4  0
 16 19  1  0
 16 20  2  0
 17 19  4  0
 17 21  4  0
 19 22  4  0
 20 28  1  0
 25 27  4  0
M  END
$$$$

 Created by Python create_sdf_string function

 28 30  0  0  0  0  0  0  0  0999 V2000
   11.4592   11.2893   18.7941 C   0  0  0  0  0  0  0  0  0  0  0  0
    3.4202    7.9009   20.3866 C   0  0  0  0  0  0  0  0  0  0  0  0
   13.5280   10.3522   19.3586 C   0  0  0  0  0  0  0  0  0  0  0  0
    9.6923    5.6468   22.7891 C   0  0  0  0  0  0  0  0  0  0  0  0
   11.7756   10.2554   20.8841 N   0  0  0  0  0  0  0  0  0  0  0  0
    8.9876   11.9370   19.8757 O   0  0  0  0  0  0  0  0  0  0  0  0
    6.0167    8.4478   21.1089 C   0  0  0  0  0  0  0  0  0  0  0  0
   11.0002   10.8890   20.0262 C   0  0  0  0  0  0  0  0  0  0  0  0
    2.1721    7.7393   20.0315 O   0  0  0  0  0  0  0  0  0  0  0  0
    9.1107   10.3880   21.3769 N   0  0  0  0  0  0  0  0  0  0  0  0
    3.9102    9.2008   20.3124 C   0  0  0  0  0  0  0  0  0  0  0  0
   12.7292   10.9960   18.4597 C   0  0  0  0  0  0  0  0  0  0  0  0
    9.3798    6.6793   23.6625 C   0  0  0  0  0  0  0  0  0  0  0  0
   14.7425   10.0739   19.0802 O   0  0  0  0  0  0  0  0  0  0  0  0
    5.1894    9.4673   20.7118 C   0  0  0  0  0  0  0  0  0  0  0  0
    7.3773    8.8224   21.4870 C   0  0  0  0  0  0  0  0  0  0  0  0
    8.4391    6.6439   21.0235 C   0  0  0  0  0  0  0  0  0  0  0  0
    9.6494   11.1353   20.4167 C   0  0  0  0  0  0  0  0  0  0  0  0
    8.1431    7.6829   21.9046 C   0  0  0  0  0  0  0  0  0  0  0  0
    7.7796   10.1314   21.5115 N   0  0  0  0  0  0  0  0  0  0  0  0
    9.2768    5.6183   21.4437 C   0  0  0  0  0  0  0  0  0  0  0  0
    8.6315    7.7322   23.1768 C   0  0  0  0  0  0  0  0  0  0  0  0
   13.0537    9.9821   20.5781 C   0  0  0  0  0  0  0  0  0  0  0  0
   10.3850    4.6575   23.2386 O   0  0  0  0  0  0  0  0  0  0  0  0
    4.2069    6.8450   20.7994 C   0  0  0  0  0  0  0  0  0  0  0  0
    3.0726   10.1043   19.8522 O   0  0  0  0  0  0  0  0  0  0  0  0
    5.5057    7.1196   21.1155 C   0  0  0  0  0  0  0  0  0  0  0  0
    7.0367   11.0229   21.9948 O   0  0  0  0  0  0  0  0  0  0  0  0
  1  8  4  0
  1 12  4  0
  2  9  1  0
  2 11  4  0
  2 25  4  0
  3 12  4  0
  3 14  1  0
  3 23  4  0
  4 13  4  0
  4 21  4  0
  4 24  1  0
  5  8  4  0
  5 23  4  0
  6 18  2  0
  7 15  4  0
  7 16  1  0
  7 27  4  0
  8 18  1  0
 10 18  1  0
 10 20  1  0
 11 15  4  0
 11 26  1  0
 13 22  4  0
 16 19  1  0
 16 20  2  0
 17 19  4  0
 17 21  4  0
 19 22  4  0
 20 28  1  0
 25 27  4  0
M  END
$$$$

 Created by Python create_sdf_string function

 28 30  0  0  0  0  0  0  0  0999 V2000
   11.4592   11.2893   18.7941 C   0  0  0  0  0  0  0  0  0  0  0  0
    3.4202    7.9009   20.3866 C   0  0  0  0  0  0  0  0  0  0  0  0
   13.5280   10.3522   19.3586 C   0  0  0  0  0  0  0  0  0  0  0  0
    9.6923    5.6468   22.7891 C   0  0  0  0  0  0  0  0  0  0  0  0
   11.7756   10.2554   20.8841 N   0  0  0  0  0  0  0  0  0  0  0  0
    8.9876   11.9370   19.8757 O   0  0  0  0  0  0  0  0  0  0  0  0
    6.0167    8.4478   21.1089 C   0  0  0  0  0  0  0  0  0  0  0  0
   11.0002   10.8890   20.0262 C   0  0  0  0  0  0  0  0  0  0  0  0
    2.1721    7.7393   20.0315 O   0  0  0  0  0  0  0  0  0  0  0  0
    9.1107   10.3880   21.3769 N   0  0  0  0  0  0  0  0  0  0  0  0
    3.9102    9.2008   20.3124 C   0  0  0  0  0  0  0  0  0  0  0  0
   12.7292   10.9960   18.4597 C   0  0  0  0  0  0  0  0  0  0  0  0
    9.3798    6.6793   23.6625 C   0  0  0  0  0  0  0  0  0  0  0  0
   14.7425   10.0739   19.0802 O   0  0  0  0  0  0  0  0  0  0  0  0
    5.1894    9.4673   20.7118 C   0  0  0  0  0  0  0  0  0  0  0  0
    7.3773    8.8224   21.4870 C   0  0  0  0  0  0  0  0  0  0  0  0
    8.4391    6.6439   21.0235 C   0  0  0  0  0  0  0  0  0  0  0  0
    9.6494   11.1353   20.4167 C   0  0  0  0  0  0  0  0  0  0  0  0
    8.1431    7.6829   21.9046 C   0  0  0  0  0  0  0  0  0  0  0  0
    7.7796   10.1314   21.5115 N   0  0  0  0  0  0  0  0  0  0  0  0
    9.2768    5.6183   21.4437 C   0  0  0  0  0  0  0  0  0  0  0  0
    8.6315    7.7322   23.1768 C   0  0  0  0  0  0  0  0  0  0  0  0
   13.0537    9.9821   20.5781 C   0  0  0  0  0  0  0  0  0  0  0  0
   10.3850    4.6575   23.2386 O   0  0  0  0  0  0  0  0  0  0  0  0
    4.2069    6.8450   20.7994 C   0  0  0  0  0  0  0  0  0  0  0  0
    3.0726   10.1043   19.8522 O   0  0  0  0  0  0  0  0  0  0  0  0
    5.5057    7.1196   21.1155 C   0  0  0  0  0  0  0  0  0  0  0  0
    7.0367   11.0229   21.9948 O   0  0  0  0  0  0  0  0  0  0  0  0
  1  8  4  0
  1 12  4  0
  2  9  1  0
  2 11  4  0
  2 25  4  0
  3 12  4  0
  3 14  1  0
  3 23  4  0
  4 13  4  0
  4 21  4  0
  4 24  1  0
  5  8  4  0
  5 23  4  0
  6 18  2  0
  7 15  4  0
  7 16  1  0
  7 27  4  0
  8 18  1  0
 10 18  1  0
 10 20  1  0
 11 15  4  0
 11 26  1  0
 13 22  4  0
 16 19  1  0
 16 20  2  0
 17 19  4  0
 17 21  4  0
 19 22  4  0
 20 28  1  0
 25 27  4  0
M  END
$$$$

 Created by Python create_sdf_string function

 28 30  0  0  0  0  0  0  0  0999 V2000
   11.4592   11.2893   18.7941 C   0  0  0  0  0  0  0  0  0  0  0  0
    3.4202    7.9009   20.3866 C   0  0  0  0  0  0  0  0  0  0  0  0
   13.5280   10.3522   19.3586 C   0  0  0  0  0  0  0  0  0  0  0  0
    9.6923    5.6468   22.7891 C   0  0  0  0  0  0  0  0  0  0  0  0
   11.7756   10.2554   20.8841 N   0  0  0  0  0  0  0  0  0  0  0  0
    8.9876   11.9370   19.8757 O   0  0  0  0  0  0  0  0  0  0  0  0
    6.0167    8.4478   21.1089 C   0  0  0  0  0  0  0  0  0  0  0  0
   11.0002   10.8890   20.0262 C   0  0  0  0  0  0  0  0  0  0  0  0
    2.1721    7.7393   20.0315 O   0  0  0  0  0  0  0  0  0  0  0  0
    9.1107   10.3880   21.3769 N   0  0  0  0  0  0  0  0  0  0  0  0
    3.9102    9.2008   20.3124 C   0  0  0  0  0  0  0  0  0  0  0  0
   12.7292   10.9960   18.4597 C   0  0  0  0  0  0  0  0  0  0  0  0
    9.3798    6.6793   23.6625 C   0  0  0  0  0  0  0  0  0  0  0  0
   14.7425   10.0739   19.0802 O   0  0  0  0  0  0  0  0  0  0  0  0
    5.1894    9.4673   20.7118 C   0  0  0  0  0  0  0  0  0  0  0  0
    7.3773    8.8224   21.4870 C   0  0  0  0  0  0  0  0  0  0  0  0
    8.4391    6.6439   21.0235 C   0  0  0  0  0  0  0  0  0  0  0  0
    9.6494   11.1353   20.4167 C   0  0  0  0  0  0  0  0  0  0  0  0
    8.1431    7.6829   21.9046 C   0  0  0  0  0  0  0  0  0  0  0  0
    7.7796   10.1314   21.5115 N   0  0  0  0  0  0  0  0  0  0  0  0
    9.2768    5.6183   21.4437 C   0  0  0  0  0  0  0  0  0  0  0  0
    8.6315    7.7322   23.1768 C   0  0  0  0  0  0  0  0  0  0  0  0
   13.0537    9.9821   20.5781 C   0  0  0  0  0  0  0  0  0  0  0  0
   10.3850    4.6575   23.2386 O   0  0  0  0  0  0  0  0  0  0  0  0
    4.2069    6.8450   20.7994 C   0  0  0  0  0  0  0  0  0  0  0  0
    3.0726   10.1043   19.8522 O   0  0  0  0  0  0  0  0  0  0  0  0
    5.5057    7.1196   21.1155 C   0  0  0  0  0  0  0  0  0  0  0  0
    7.0367   11.0229   21.9948 O   0  0  0  0  0  0  0  0  0  0  0  0
  1  8  4  0
  1 12  4  0
  2  9  1  0
  2 11  4  0
  2 25  4  0
  3 12  4  0
  3 14  1  0
  3 23  4  0
  4 13  4  0
  4 21  4  0
  4 24  1  0
  5  8  4  0
  5 23  4  0
  6 18  2  0
  7 15  4  0
  7 16  1  0
  7 27  4  0
  8 18  1  0
 10 18  1  0
 10 20  1  0
 11 15  4  0
 11 26  1  0
 13 22  4  0
 16 19  1  0
 16 20  2  0
 17 19  4  0
 17 21  4  0
 19 22  4  0
 20 28  1  0
 25 27  4  0
M  END
$$$$

 Created by Python create_sdf_string function

 28 30  0  0  0  0  0  0  0  0999 V2000
   11.4592   11.2893   18.7941 C   0  0  0  0  0  0  0  0  0  0  0  0
    3.4202    7.9009   20.3866 C   0  0  0  0  0  0  0  0  0  0  0  0
   13.5280   10.3522   19.3586 C   0  0  0  0  0  0  0  0  0  0  0  0
    9.6923    5.6468   22.7891 C   0  0  0  0  0  0  0  0  0  0  0  0
   11.7756   10.2554   20.8841 N   0  0  0  0  0  0  0  0  0  0  0  0
    8.9876   11.9370   19.8757 O   0  0  0  0  0  0  0  0  0  0  0  0
    6.0167    8.4478   21.1089 C   0  0  0  0  0  0  0  0  0  0  0  0
   11.0002   10.8890   20.0262 C   0  0  0  0  0  0  0  0  0  0  0  0
    2.1721    7.7393   20.0315 O   0  0  0  0  0  0  0  0  0  0  0  0
    9.1107   10.3880   21.3769 N   0  0  0  0  0  0  0  0  0  0  0  0
    3.9102    9.2008   20.3124 C   0  0  0  0  0  0  0  0  0  0  0  0
   12.7292   10.9960   18.4597 C   0  0  0  0  0  0  0  0  0  0  0  0
    9.3798    6.6793   23.6625 C   0  0  0  0  0  0  0  0  0  0  0  0
   14.7425   10.0739   19.0802 O   0  0  0  0  0  0  0  0  0  0  0  0
    5.1894    9.4673   20.7118 C   0  0  0  0  0  0  0  0  0  0  0  0
    7.3773    8.8224   21.4870 C   0  0  0  0  0  0  0  0  0  0  0  0
    8.4391    6.6439   21.0235 C   0  0  0  0  0  0  0  0  0  0  0  0
    9.6494   11.1353   20.4167 C   0  0  0  0  0  0  0  0  0  0  0  0
    8.1431    7.6829   21.9046 C   0  0  0  0  0  0  0  0  0  0  0  0
    7.7796   10.1314   21.5115 N   0  0  0  0  0  0  0  0  0  0  0  0
    9.2768    5.6183   21.4437 C   0  0  0  0  0  0  0  0  0  0  0  0
    8.6315    7.7322   23.1768 C   0  0  0  0  0  0  0  0  0  0  0  0
   13.0537    9.9821   20.5781 C   0  0  0  0  0  0  0  0  0  0  0  0
   10.3850    4.6575   23.2386 O   0  0  0  0  0  0  0  0  0  0  0  0
    4.2069    6.8450   20.7994 C   0  0  0  0  0  0  0  0  0  0  0  0
    3.0726   10.1043   19.8522 O   0  0  0  0  0  0  0  0  0  0  0  0
    5.5057    7.1196   21.1155 C   0  0  0  0  0  0  0  0  0  0  0  0
    7.0367   11.0229   21.9948 O   0  0  0  0  0  0  0  0  0  0  0  0
  1  8  4  0
  1 12  4  0
  2  9  1  0
  2 11  4  0
  2 25  4  0
  3 12  4  0
  3 14  1  0
  3 23  4  0
  4 13  4  0
  4 21  4  0
  4 24  1  0
  5  8  4  0
  5 23  4  0
  6 18  2  0
  7 15  4  0
  7 16  1  0
  7 27  4  0
  8 18  1  0
 10 18  1  0
 10 20  1  0
 11 15  4  0
 11 26  1  0
 13 22  4  0
 16 19  1  0
 16 20  2  0
 17 19  4  0
 17 21  4  0
 19 22  4  0
 20 28  1  0
 25 27  4  0
M  END
$$$$

 Created by Python create_sdf_string function

 28 30  0  0  0  0  0  0  0  0999 V2000
   11.4592   11.2893   18.7941 C   0  0  0  0  0  0  0  0  0  0  0  0
    3.4202    7.9009   20.3866 C   0  0  0  0  0  0  0  0  0  0  0  0
   13.5280   10.3522   19.3586 C   0  0  0  0  0  0  0  0  0  0  0  0
    9.6923    5.6468   22.7891 C   0  0  0  0  0  0  0  0  0  0  0  0
   11.7756   10.2554   20.8841 N   0  0  0  0  0  0  0  0  0  0  0  0
    8.9876   11.9370   19.8757 O   0  0  0  0  0  0  0  0  0  0  0  0
    6.0167    8.4478   21.1089 C   0  0  0  0  0  0  0  0  0  0  0  0
   11.0002   10.8890   20.0262 C   0  0  0  0  0  0  0  0  0  0  0  0
    2.1721    7.7393   20.0315 O   0  0  0  0  0  0  0  0  0  0  0  0
    9.1107   10.3880   21.3769 N   0  0  0  0  0  0  0  0  0  0  0  0
    3.9102    9.2008   20.3124 C   0  0  0  0  0  0  0  0  0  0  0  0
   12.7292   10.9960   18.4597 C   0  0  0  0  0  0  0  0  0  0  0  0
    9.3798    6.6793   23.6625 C   0  0  0  0  0  0  0  0  0  0  0  0
   14.7425   10.0739   19.0802 O   0  0  0  0  0  0  0  0  0  0  0  0
    5.1894    9.4673   20.7118 C   0  0  0  0  0  0  0  0  0  0  0  0
    7.3773    8.8224   21.4870 C   0  0  0  0  0  0  0  0  0  0  0  0
    8.4391    6.6439   21.0235 C   0  0  0  0  0  0  0  0  0  0  0  0
    9.6494   11.1353   20.4167 C   0  0  0  0  0  0  0  0  0  0  0  0
    8.1431    7.6829   21.9046 C   0  0  0  0  0  0  0  0  0  0  0  0
    7.7796   10.1314   21.5115 N   0  0  0  0  0  0  0  0  0  0  0  0
    9.2768    5.6183   21.4437 C   0  0  0  0  0  0  0  0  0  0  0  0
    8.6315    7.7322   23.1768 C   0  0  0  0  0  0  0  0  0  0  0  0
   13.0537    9.9821   20.5781 C   0  0  0  0  0  0  0  0  0  0  0  0
   10.3850    4.6575   23.2386 O   0  0  0  0  0  0  0  0  0  0  0  0
    4.2069    6.8450   20.7994 C   0  0  0  0  0  0  0  0  0  0  0  0
    3.0726   10.1043   19.8522 O   0  0  0  0  0  0  0  0  0  0  0  0
    5.5057    7.1196   21.1155 C   0  0  0  0  0  0  0  0  0  0  0  0
    7.0367   11.0229   21.9948 O   0  0  0  0  0  0  0  0  0  0  0  0
  1  8  4  0
  1 12  4  0
  2  9  1  0
  2 11  4  0
  2 25  4  0
  3 12  4  0
  3 14  1  0
  3 23  4  0
  4 13  4  0
  4 21  4  0
  4 24  1  0
  5  8  4  0
  5 23  4  0
  6 18  2  0
  7 15  4  0
  7 16  1  0
  7 27  4  0
  8 18  1  0
 10 18  1  0
 10 20  1  0
 11 15  4  0
 11 26  1  0
 13 22  4  0
 16 19  1  0
 16 20  2  0
 17 19  4  0
 17 21  4  0
 19 22  4  0
 20 28  1  0
 25 27  4  0
M  END
$$$$

 Created by Python create_sdf_string function

 28 30  0  0  0  0  0  0  0  0999 V2000
   11.4592   11.2893   18.7941 C   0  0  0  0  0  0  0  0  0  0  0  0
    3.4202    7.9009   20.3866 C   0  0  0  0  0  0  0  0  0  0  0  0
   13.5280   10.3522   19.3586 C   0  0  0  0  0  0  0  0  0  0  0  0
    9.6923    5.6468   22.7891 C   0  0  0  0  0  0  0  0  0  0  0  0
   11.7756   10.2554   20.8841 N   0  0  0  0  0  0  0  0  0  0  0  0
    8.9876   11.9370   19.8757 O   0  0  0  0  0  0  0  0  0  0  0  0
    6.0167    8.4478   21.1089 C   0  0  0  0  0  0  0  0  0  0  0  0
   11.0002   10.8890   20.0262 C   0  0  0  0  0  0  0  0  0  0  0  0
    2.1721    7.7393   20.0315 O   0  0  0  0  0  0  0  0  0  0  0  0
    9.1107   10.3880   21.3769 N   0  0  0  0  0  0  0  0  0  0  0  0
    3.9102    9.2008   20.3124 C   0  0  0  0  0  0  0  0  0  0  0  0
   12.7292   10.9960   18.4597 C   0  0  0  0  0  0  0  0  0  0  0  0
    9.3798    6.6793   23.6625 C   0  0  0  0  0  0  0  0  0  0  0  0
   14.7425   10.0739   19.0802 O   0  0  0  0  0  0  0  0  0  0  0  0
    5.1894    9.4673   20.7118 C   0  0  0  0  0  0  0  0  0  0  0  0
    7.3773    8.8224   21.4870 C   0  0  0  0  0  0  0  0  0  0  0  0
    8.4391    6.6439   21.0235 C   0  0  0  0  0  0  0  0  0  0  0  0
    9.6494   11.1353   20.4167 C   0  0  0  0  0  0  0  0  0  0  0  0
    8.1431    7.6829   21.9046 C   0  0  0  0  0  0  0  0  0  0  0  0
    7.7796   10.1314   21.5115 N   0  0  0  0  0  0  0  0  0  0  0  0
    9.2768    5.6183   21.4437 C   0  0  0  0  0  0  0  0  0  0  0  0
    8.6315    7.7322   23.1768 C   0  0  0  0  0  0  0  0  0  0  0  0
   13.0537    9.9821   20.5781 C   0  0  0  0  0  0  0  0  0  0  0  0
   10.3850    4.6575   23.2386 O   0  0  0  0  0  0  0  0  0  0  0  0
    4.2069    6.8450   20.7994 C   0  0  0  0  0  0  0  0  0  0  0  0
    3.0726   10.1043   19.8522 O   0  0  0  0  0  0  0  0  0  0  0  0
    5.5057    7.1196   21.1155 C   0  0  0  0  0  0  0  0  0  0  0  0
    7.0367   11.0229   21.9948 O   0  0  0  0  0  0  0  0  0  0  0  0
  1  8  4  0
  1 12  4  0
  2  9  1  0
  2 11  4  0
  2 25  4  0
  3 12  4  0
  3 14  1  0
  3 23  4  0
  4 13  4  0
  4 21  4  0
  4 24  1  0
  5  8  4  0
  5 23  4  0
  6 18  2  0
  7 15  4  0
  7 16  1  0
  7 27  4  0
  8 18  1  0
 10 18  1  0
 10 20  1  0
 11 15  4  0
 11 26  1  0
 13 22  4  0
 16 19  1  0
 16 20  2  0
 17 19  4  0
 17 21  4  0
 19 22  4  0
 20 28  1  0
 25 27  4  0
M  END
$$$$

 Created by Python create_sdf_string function

 28 30  0  0  0  0  0  0  0  0999 V2000
   11.4592   11.2893   18.7941 C   0  0  0  0  0  0  0  0  0  0  0  0
    3.4202    7.9009   20.3866 C   0  0  0  0  0  0  0  0  0  0  0  0
   13.5280   10.3522   19.3586 C   0  0  0  0  0  0  0  0  0  0  0  0
    9.6923    5.6468   22.7891 C   0  0  0  0  0  0  0  0  0  0  0  0
   11.7756   10.2554   20.8841 N   0  0  0  0  0  0  0  0  0  0  0  0
    8.9876   11.9370   19.8757 O   0  0  0  0  0  0  0  0  0  0  0  0
    6.0167    8.4478   21.1089 C   0  0  0  0  0  0  0  0  0  0  0  0
   11.0002   10.8890   20.0262 C   0  0  0  0  0  0  0  0  0  0  0  0
    2.1721    7.7393   20.0315 O   0  0  0  0  0  0  0  0  0  0  0  0
    9.1107   10.3880   21.3769 N   0  0  0  0  0  0  0  0  0  0  0  0
    3.9102    9.2008   20.3124 C   0  0  0  0  0  0  0  0  0  0  0  0
   12.7292   10.9960   18.4597 C   0  0  0  0  0  0  0  0  0  0  0  0
    9.3798    6.6793   23.6625 C   0  0  0  0  0  0  0  0  0  0  0  0
   14.7425   10.0739   19.0802 O   0  0  0  0  0  0  0  0  0  0  0  0
    5.1894    9.4673   20.7118 C   0  0  0  0  0  0  0  0  0  0  0  0
    7.3773    8.8224   21.4870 C   0  0  0  0  0  0  0  0  0  0  0  0
    8.4391    6.6439   21.0235 C   0  0  0  0  0  0  0  0  0  0  0  0
    9.6494   11.1353   20.4167 C   0  0  0  0  0  0  0  0  0  0  0  0
    8.1431    7.6829   21.9046 C   0  0  0  0  0  0  0  0  0  0  0  0
    7.7796   10.1314   21.5115 N   0  0  0  0  0  0  0  0  0  0  0  0
    9.2768    5.6183   21.4437 C   0  0  0  0  0  0  0  0  0  0  0  0
    8.6315    7.7322   23.1768 C   0  0  0  0  0  0  0  0  0  0  0  0
   13.0537    9.9821   20.5781 C   0  0  0  0  0  0  0  0  0  0  0  0
   10.3850    4.6575   23.2386 O   0  0  0  0  0  0  0  0  0  0  0  0
    4.2069    6.8450   20.7994 C   0  0  0  0  0  0  0  0  0  0  0  0
    3.0726   10.1043   19.8522 O   0  0  0  0  0  0  0  0  0  0  0  0
    5.5057    7.1196   21.1155 C   0  0  0  0  0  0  0  0  0  0  0  0
    7.0367   11.0229   21.9948 O   0  0  0  0  0  0  0  0  0  0  0  0
  1  8  4  0
  1 12  4  0
  2  9  1  0
  2 11  4  0
  2 25  4  0
  3 12  4  0
  3 14  1  0
  3 23  4  0
  4 13  4  0
  4 21  4  0
  4 24  1  0
  5  8  4  0
  5 23  4  0
  6 18  2  0
  7 15  4  0
  7 16  1  0
  7 27  4  0
  8 18  1  0
 10 18  1  0
 10 20  1  0
 11 15  4  0
 11 26  1  0
 13 22  4  0
 16 19  1  0
 16 20  2  0
 17 19  4  0
 17 21  4  0
 19 22  4  0
 20 28  1  0
 25 27  4  0
M  END
$$$$

 Created by Python create_sdf_string function

 28 30  0  0  0  0  0  0  0  0999 V2000
   11.4592   11.2893   18.7941 C   0  0  0  0  0  0  0  0  0  0  0  0
    3.4202    7.9009   20.3866 C   0  0  0  0  0  0  0  0  0  0  0  0
   13.5280   10.3522   19.3586 C   0  0  0  0  0  0  0  0  0  0  0  0
    9.6923    5.6468   22.7891 C   0  0  0  0  0  0  0  0  0  0  0  0
   11.7756   10.2554   20.8841 N   0  0  0  0  0  0  0  0  0  0  0  0
    8.9876   11.9370   19.8757 O   0  0  0  0  0  0  0  0  0  0  0  0
    6.0167    8.4478   21.1089 C   0  0  0  0  0  0  0  0  0  0  0  0
   11.0002   10.8890   20.0262 C   0  0  0  0  0  0  0  0  0  0  0  0
    2.1721    7.7393   20.0315 O   0  0  0  0  0  0  0  0  0  0  0  0
    9.1107   10.3880   21.3769 N   0  0  0  0  0  0  0  0  0  0  0  0
    3.9102    9.2008   20.3124 C   0  0  0  0  0  0  0  0  0  0  0  0
   12.7292   10.9960   18.4597 C   0  0  0  0  0  0  0  0  0  0  0  0
    9.3798    6.6793   23.6625 C   0  0  0  0  0  0  0  0  0  0  0  0
   14.7425   10.0739   19.0802 O   0  0  0  0  0  0  0  0  0  0  0  0
    5.1894    9.4673   20.7118 C   0  0  0  0  0  0  0  0  0  0  0  0
    7.3773    8.8224   21.4870 C   0  0  0  0  0  0  0  0  0  0  0  0
    8.4391    6.6439   21.0235 C   0  0  0  0  0  0  0  0  0  0  0  0
    9.6494   11.1353   20.4167 C   0  0  0  0  0  0  0  0  0  0  0  0
    8.1431    7.6829   21.9046 C   0  0  0  0  0  0  0  0  0  0  0  0
    7.7796   10.1314   21.5115 N   0  0  0  0  0  0  0  0  0  0  0  0
    9.2768    5.6183   21.4437 C   0  0  0  0  0  0  0  0  0  0  0  0
    8.6315    7.7322   23.1768 C   0  0  0  0  0  0  0  0  0  0  0  0
   13.0537    9.9821   20.5781 C   0  0  0  0  0  0  0  0  0  0  0  0
   10.3850    4.6575   23.2386 O   0  0  0  0  0  0  0  0  0  0  0  0
    4.2069    6.8450   20.7994 C   0  0  0  0  0  0  0  0  0  0  0  0
    3.0726   10.1043   19.8522 O   0  0  0  0  0  0  0  0  0  0  0  0
    5.5057    7.1196   21.1155 C   0  0  0  0  0  0  0  0  0  0  0  0
    7.0367   11.0229   21.9948 O   0  0  0  0  0  0  0  0  0  0  0  0
  1  8  4  0
  1 12  4  0
  2  9  1  0
  2 11  4  0
  2 25  4  0
  3 12  4  0
  3 14  1  0
  3 23  4  0
  4 13  4  0
  4 21  4  0
  4 24  1  0
  5  8  4  0
  5 23  4  0
  6 18  2  0
  7 15  4  0
  7 16  1  0
  7 27  4  0
  8 18  1  0
 10 18  1  0
 10 20  1  0
 11 15  4  0
 11 26  1  0
 13 22  4  0
 16 19  1  0
 16 20  2  0
 17 19  4  0
 17 21  4  0
 19 22  4  0
 20 28  1  0
 25 27  4  0
M  END
$$$$

 Created by Python create_sdf_string function

 28 30  0  0  0  0  0  0  0  0999 V2000
   11.4592   11.2893   18.7941 C   0  0  0  0  0  0  0  0  0  0  0  0
    3.4202    7.9009   20.3866 C   0  0  0  0  0  0  0  0  0  0  0  0
   13.5280   10.3522   19.3586 C   0  0  0  0  0  0  0  0  0  0  0  0
    9.6923    5.6468   22.7891 C   0  0  0  0  0  0  0  0  0  0  0  0
   11.7756   10.2554   20.8841 N   0  0  0  0  0  0  0  0  0  0  0  0
    8.9876   11.9370   19.8757 O   0  0  0  0  0  0  0  0  0  0  0  0
    6.0167    8.4478   21.1089 C   0  0  0  0  0  0  0  0  0  0  0  0
   11.0002   10.8890   20.0262 C   0  0  0  0  0  0  0  0  0  0  0  0
    2.1721    7.7393   20.0315 O   0  0  0  0  0  0  0  0  0  0  0  0
    9.1107   10.3880   21.3769 N   0  0  0  0  0  0  0  0  0  0  0  0
    3.9102    9.2008   20.3124 C   0  0  0  0  0  0  0  0  0  0  0  0
   12.7292   10.9960   18.4597 C   0  0  0  0  0  0  0  0  0  0  0  0
    9.3798    6.6793   23.6625 C   0  0  0  0  0  0  0  0  0  0  0  0
   14.7425   10.0739   19.0802 O   0  0  0  0  0  0  0  0  0  0  0  0
    5.1894    9.4673   20.7118 C   0  0  0  0  0  0  0  0  0  0  0  0
    7.3773    8.8224   21.4870 C   0  0  0  0  0  0  0  0  0  0  0  0
    8.4391    6.6439   21.0235 C   0  0  0  0  0  0  0  0  0  0  0  0
    9.6494   11.1353   20.4167 C   0  0  0  0  0  0  0  0  0  0  0  0
    8.1431    7.6829   21.9046 C   0  0  0  0  0  0  0  0  0  0  0  0
    7.7796   10.1314   21.5115 N   0  0  0  0  0  0  0  0  0  0  0  0
    9.2768    5.6183   21.4437 C   0  0  0  0  0  0  0  0  0  0  0  0
    8.6315    7.7322   23.1768 C   0  0  0  0  0  0  0  0  0  0  0  0
   13.0537    9.9821   20.5781 C   0  0  0  0  0  0  0  0  0  0  0  0
   10.3850    4.6575   23.2386 O   0  0  0  0  0  0  0  0  0  0  0  0
    4.2069    6.8450   20.7994 C   0  0  0  0  0  0  0  0  0  0  0  0
    3.0726   10.1043   19.8522 O   0  0  0  0  0  0  0  0  0  0  0  0
    5.5057    7.1196   21.1155 C   0  0  0  0  0  0  0  0  0  0  0  0
    7.0367   11.0229   21.9948 O   0  0  0  0  0  0  0  0  0  0  0  0
  1  8  4  0
  1 12  4  0
  2  9  1  0
  2 11  4  0
  2 25  4  0
  3 12  4  0
  3 14  1  0
  3 23  4  0
  4 13  4  0
  4 21  4  0
  4 24  1  0
  5  8  4  0
  5 23  4  0
  6 18  2  0
  7 15  4  0
  7 16  1  0
  7 27  4  0
  8 18  1  0
 10 18  1  0
 10 20  1  0
 11 15  4  0
 11 26  1  0
 13 22  4  0
 16 19  1  0
 16 20  2  0
 17 19  4  0
 17 21  4  0
 19 22  4  0
 20 28  1  0
 25 27  4  0
M  END
$$$$

 Created by Python create_sdf_string function

 28 30  0  0  0  0  0  0  0  0999 V2000
   11.4592   11.2893   18.7941 C   0  0  0  0  0  0  0  0  0  0  0  0
    3.4202    7.9009   20.3866 C   0  0  0  0  0  0  0  0  0  0  0  0
   13.5280   10.3522   19.3586 C   0  0  0  0  0  0  0  0  0  0  0  0
    9.6923    5.6468   22.7891 C   0  0  0  0  0  0  0  0  0  0  0  0
   11.7756   10.2554   20.8841 N   0  0  0  0  0  0  0  0  0  0  0  0
    8.9876   11.9370   19.8757 O   0  0  0  0  0  0  0  0  0  0  0  0
    6.0167    8.4478   21.1089 C   0  0  0  0  0  0  0  0  0  0  0  0
   11.0002   10.8890   20.0262 C   0  0  0  0  0  0  0  0  0  0  0  0
    2.1721    7.7393   20.0315 O   0  0  0  0  0  0  0  0  0  0  0  0
    9.1107   10.3880   21.3769 N   0  0  0  0  0  0  0  0  0  0  0  0
    3.9102    9.2008   20.3124 C   0  0  0  0  0  0  0  0  0  0  0  0
   12.7292   10.9960   18.4597 C   0  0  0  0  0  0  0  0  0  0  0  0
    9.3798    6.6793   23.6625 C   0  0  0  0  0  0  0  0  0  0  0  0
   14.7425   10.0739   19.0802 O   0  0  0  0  0  0  0  0  0  0  0  0
    5.1894    9.4673   20.7118 C   0  0  0  0  0  0  0  0  0  0  0  0
    7.3773    8.8224   21.4870 C   0  0  0  0  0  0  0  0  0  0  0  0
    8.4391    6.6439   21.0235 C   0  0  0  0  0  0  0  0  0  0  0  0
    9.6494   11.1353   20.4167 C   0  0  0  0  0  0  0  0  0  0  0  0
    8.1431    7.6829   21.9046 C   0  0  0  0  0  0  0  0  0  0  0  0
    7.7796   10.1314   21.5115 N   0  0  0  0  0  0  0  0  0  0  0  0
    9.2768    5.6183   21.4437 C   0  0  0  0  0  0  0  0  0  0  0  0
    8.6315    7.7322   23.1768 C   0  0  0  0  0  0  0  0  0  0  0  0
   13.0537    9.9821   20.5781 C   0  0  0  0  0  0  0  0  0  0  0  0
   10.3850    4.6575   23.2386 O   0  0  0  0  0  0  0  0  0  0  0  0
    4.2069    6.8450   20.7994 C   0  0  0  0  0  0  0  0  0  0  0  0
    3.0726   10.1043   19.8522 O   0  0  0  0  0  0  0  0  0  0  0  0
    5.5057    7.1196   21.1155 C   0  0  0  0  0  0  0  0  0  0  0  0
    7.0367   11.0229   21.9948 O   0  0  0  0  0  0  0  0  0  0  0  0
  1  8  4  0
  1 12  4  0
  2  9  1  0
  2 11  4  0
  2 25  4  0
  3 12  4  0
  3 14  1  0
  3 23  4  0
  4 13  4  0
  4 21  4  0
  4 24  1  0
  5  8  4  0
  5 23  4  0
  6 18  2  0
  7 15  4  0
  7 16  1  0
  7 27  4  0
  8 18  1  0
 10 18  1  0
 10 20  1  0
 11 15  4  0
 11 26  1  0
 13 22  4  0
 16 19  1  0
 16 20  2  0
 17 19  4  0
 17 21  4  0
 19 22  4  0
 20 28  1  0
 25 27  4  0
M  END
$$$$

 Created by Python create_sdf_string function

 28 30  0  0  0  0  0  0  0  0999 V2000
   11.4592   11.2893   18.7941 C   0  0  0  0  0  0  0  0  0  0  0  0
    3.4202    7.9009   20.3866 C   0  0  0  0  0  0  0  0  0  0  0  0
   13.5280   10.3522   19.3586 C   0  0  0  0  0  0  0  0  0  0  0  0
    9.6923    5.6468   22.7891 C   0  0  0  0  0  0  0  0  0  0  0  0
   11.7756   10.2554   20.8841 N   0  0  0  0  0  0  0  0  0  0  0  0
    8.9876   11.9370   19.8757 O   0  0  0  0  0  0  0  0  0  0  0  0
    6.0167    8.4478   21.1089 C   0  0  0  0  0  0  0  0  0  0  0  0
   11.0002   10.8890   20.0262 C   0  0  0  0  0  0  0  0  0  0  0  0
    2.1721    7.7393   20.0315 O   0  0  0  0  0  0  0  0  0  0  0  0
    9.1107   10.3880   21.3769 N   0  0  0  0  0  0  0  0  0  0  0  0
    3.9102    9.2008   20.3124 C   0  0  0  0  0  0  0  0  0  0  0  0
   12.7292   10.9960   18.4597 C   0  0  0  0  0  0  0  0  0  0  0  0
    9.3798    6.6793   23.6625 C   0  0  0  0  0  0  0  0  0  0  0  0
   14.7425   10.0739   19.0802 O   0  0  0  0  0  0  0  0  0  0  0  0
    5.1894    9.4673   20.7118 C   0  0  0  0  0  0  0  0  0  0  0  0
    7.3773    8.8224   21.4870 C   0  0  0  0  0  0  0  0  0  0  0  0
    8.4391    6.6439   21.0235 C   0  0  0  0  0  0  0  0  0  0  0  0
    9.6494   11.1353   20.4167 C   0  0  0  0  0  0  0  0  0  0  0  0
    8.1431    7.6829   21.9046 C   0  0  0  0  0  0  0  0  0  0  0  0
    7.7796   10.1314   21.5115 N   0  0  0  0  0  0  0  0  0  0  0  0
    9.2768    5.6183   21.4437 C   0  0  0  0  0  0  0  0  0  0  0  0
    8.6315    7.7322   23.1768 C   0  0  0  0  0  0  0  0  0  0  0  0
   13.0537    9.9821   20.5781 C   0  0  0  0  0  0  0  0  0  0  0  0
   10.3850    4.6575   23.2386 O   0  0  0  0  0  0  0  0  0  0  0  0
    4.2069    6.8450   20.7994 C   0  0  0  0  0  0  0  0  0  0  0  0
    3.0726   10.1043   19.8522 O   0  0  0  0  0  0  0  0  0  0  0  0
    5.5057    7.1196   21.1155 C   0  0  0  0  0  0  0  0  0  0  0  0
    7.0367   11.0229   21.9948 O   0  0  0  0  0  0  0  0  0  0  0  0
  1  8  4  0
  1 12  4  0
  2  9  1  0
  2 11  4  0
  2 25  4  0
  3 12  4  0
  3 14  1  0
  3 23  4  0
  4 13  4  0
  4 21  4  0
  4 24  1  0
  5  8  4  0
  5 23  4  0
  6 18  2  0
  7 15  4  0
  7 16  1  0
  7 27  4  0
  8 18  1  0
 10 18  1  0
 10 20  1  0
 11 15  4  0
 11 26  1  0
 13 22  4  0
 16 19  1  0
 16 20  2  0
 17 19  4  0
 17 21  4  0
 19 22  4  0
 20 28  1  0
 25 27  4  0
M  END
$$$$

 Created by Python create_sdf_string function

 28 30  0  0  0  0  0  0  0  0999 V2000
   11.4592   11.2893   18.7941 C   0  0  0  0  0  0  0  0  0  0  0  0
    3.4202    7.9009   20.3866 C   0  0  0  0  0  0  0  0  0  0  0  0
   13.5280   10.3522   19.3586 C   0  0  0  0  0  0  0  0  0  0  0  0
    9.6923    5.6468   22.7891 C   0  0  0  0  0  0  0  0  0  0  0  0
   11.7756   10.2554   20.8841 N   0  0  0  0  0  0  0  0  0  0  0  0
    8.9876   11.9370   19.8757 O   0  0  0  0  0  0  0  0  0  0  0  0
    6.0167    8.4478   21.1089 C   0  0  0  0  0  0  0  0  0  0  0  0
   11.0002   10.8890   20.0262 C   0  0  0  0  0  0  0  0  0  0  0  0
    2.1721    7.7393   20.0315 O   0  0  0  0  0  0  0  0  0  0  0  0
    9.1107   10.3880   21.3769 N   0  0  0  0  0  0  0  0  0  0  0  0
    3.9102    9.2008   20.3124 C   0  0  0  0  0  0  0  0  0  0  0  0
   12.7292   10.9960   18.4597 C   0  0  0  0  0  0  0  0  0  0  0  0
    9.3798    6.6793   23.6625 C   0  0  0  0  0  0  0  0  0  0  0  0
   14.7425   10.0739   19.0802 O   0  0  0  0  0  0  0  0  0  0  0  0
    5.1894    9.4673   20.7118 C   0  0  0  0  0  0  0  0  0  0  0  0
    7.3773    8.8224   21.4870 C   0  0  0  0  0  0  0  0  0  0  0  0
    8.4391    6.6439   21.0235 C   0  0  0  0  0  0  0  0  0  0  0  0
    9.6494   11.1353   20.4167 C   0  0  0  0  0  0  0  0  0  0  0  0
    8.1431    7.6829   21.9046 C   0  0  0  0  0  0  0  0  0  0  0  0
    7.7796   10.1314   21.5115 N   0  0  0  0  0  0  0  0  0  0  0  0
    9.2768    5.6183   21.4437 C   0  0  0  0  0  0  0  0  0  0  0  0
    8.6315    7.7322   23.1768 C   0  0  0  0  0  0  0  0  0  0  0  0
   13.0537    9.9821   20.5781 C   0  0  0  0  0  0  0  0  0  0  0  0
   10.3850    4.6575   23.2386 O   0  0  0  0  0  0  0  0  0  0  0  0
    4.2069    6.8450   20.7994 C   0  0  0  0  0  0  0  0  0  0  0  0
    3.0726   10.1043   19.8522 O   0  0  0  0  0  0  0  0  0  0  0  0
    5.5057    7.1196   21.1155 C   0  0  0  0  0  0  0  0  0  0  0  0
    7.0367   11.0229   21.9948 O   0  0  0  0  0  0  0  0  0  0  0  0
  1  8  4  0
  1 12  4  0
  2  9  1  0
  2 11  4  0
  2 25  4  0
  3 12  4  0
  3 14  1  0
  3 23  4  0
  4 13  4  0
  4 21  4  0
  4 24  1  0
  5  8  4  0
  5 23  4  0
  6 18  2  0
  7 15  4  0
  7 16  1  0
  7 27  4  0
  8 18  1  0
 10 18  1  0
 10 20  1  0
 11 15  4  0
 11 26  1  0
 13 22  4  0
 16 19  1  0
 16 20  2  0
 17 19  4  0
 17 21  4  0
 19 22  4  0
 20 28  1  0
 25 27  4  0
M  END
$$$$

 Created by Python create_sdf_string function

 28 30  0  0  0  0  0  0  0  0999 V2000
   11.4592   11.2893   18.7941 C   0  0  0  0  0  0  0  0  0  0  0  0
    3.4202    7.9009   20.3866 C   0  0  0  0  0  0  0  0  0  0  0  0
   13.5280   10.3522   19.3586 C   0  0  0  0  0  0  0  0  0  0  0  0
    9.6923    5.6468   22.7891 C   0  0  0  0  0  0  0  0  0  0  0  0
   11.7756   10.2554   20.8841 N   0  0  0  0  0  0  0  0  0  0  0  0
    8.9876   11.9370   19.8757 O   0  0  0  0  0  0  0  0  0  0  0  0
    6.0167    8.4478   21.1089 C   0  0  0  0  0  0  0  0  0  0  0  0
   11.0002   10.8890   20.0262 C   0  0  0  0  0  0  0  0  0  0  0  0
    2.1721    7.7393   20.0315 O   0  0  0  0  0  0  0  0  0  0  0  0
    9.1107   10.3880   21.3769 N   0  0  0  0  0  0  0  0  0  0  0  0
    3.9102    9.2008   20.3124 C   0  0  0  0  0  0  0  0  0  0  0  0
   12.7292   10.9960   18.4597 C   0  0  0  0  0  0  0  0  0  0  0  0
    9.3798    6.6793   23.6625 C   0  0  0  0  0  0  0  0  0  0  0  0
   14.7425   10.0739   19.0802 O   0  0  0  0  0  0  0  0  0  0  0  0
    5.1894    9.4673   20.7118 C   0  0  0  0  0  0  0  0  0  0  0  0
    7.3773    8.8224   21.4870 C   0  0  0  0  0  0  0  0  0  0  0  0
    8.4391    6.6439   21.0235 C   0  0  0  0  0  0  0  0  0  0  0  0
    9.6494   11.1353   20.4167 C   0  0  0  0  0  0  0  0  0  0  0  0
    8.1431    7.6829   21.9046 C   0  0  0  0  0  0  0  0  0  0  0  0
    7.7796   10.1314   21.5115 N   0  0  0  0  0  0  0  0  0  0  0  0
    9.2768    5.6183   21.4437 C   0  0  0  0  0  0  0  0  0  0  0  0
    8.6315    7.7322   23.1768 C   0  0  0  0  0  0  0  0  0  0  0  0
   13.0537    9.9821   20.5781 C   0  0  0  0  0  0  0  0  0  0  0  0
   10.3850    4.6575   23.2386 O   0  0  0  0  0  0  0  0  0  0  0  0
    4.2069    6.8450   20.7994 C   0  0  0  0  0  0  0  0  0  0  0  0
    3.0726   10.1043   19.8522 O   0  0  0  0  0  0  0  0  0  0  0  0
    5.5057    7.1196   21.1155 C   0  0  0  0  0  0  0  0  0  0  0  0
    7.0367   11.0229   21.9948 O   0  0  0  0  0  0  0  0  0  0  0  0
  1  8  4  0
  1 12  4  0
  2  9  1  0
  2 11  4  0
  2 25  4  0
  3 12  4  0
  3 14  1  0
  3 23  4  0
  4 13  4  0
  4 21  4  0
  4 24  1  0
  5  8  4  0
  5 23  4  0
  6 18  2  0
  7 15  4  0
  7 16  1  0
  7 27  4  0
  8 18  1  0
 10 18  1  0
 10 20  1  0
 11 15  4  0
 11 26  1  0
 13 22  4  0
 16 19  1  0
 16 20  2  0
 17 19  4  0
 17 21  4  0
 19 22  4  0
 20 28  1  0
 25 27  4  0
M  END
$$$$

 Created by Python create_sdf_string function

 28 30  0  0  0  0  0  0  0  0999 V2000
   11.4592   11.2893   18.7941 C   0  0  0  0  0  0  0  0  0  0  0  0
    3.4202    7.9009   20.3866 C   0  0  0  0  0  0  0  0  0  0  0  0
   13.5280   10.3522   19.3586 C   0  0  0  0  0  0  0  0  0  0  0  0
    9.6923    5.6468   22.7891 C   0  0  0  0  0  0  0  0  0  0  0  0
   11.7756   10.2554   20.8841 N   0  0  0  0  0  0  0  0  0  0  0  0
    8.9876   11.9370   19.8757 O   0  0  0  0  0  0  0  0  0  0  0  0
    6.0167    8.4478   21.1089 C   0  0  0  0  0  0  0  0  0  0  0  0
   11.0002   10.8890   20.0262 C   0  0  0  0  0  0  0  0  0  0  0  0
    2.1721    7.7393   20.0315 O   0  0  0  0  0  0  0  0  0  0  0  0
    9.1107   10.3880   21.3769 N   0  0  0  0  0  0  0  0  0  0  0  0
    3.9102    9.2008   20.3124 C   0  0  0  0  0  0  0  0  0  0  0  0
   12.7292   10.9960   18.4597 C   0  0  0  0  0  0  0  0  0  0  0  0
    9.3798    6.6793   23.6625 C   0  0  0  0  0  0  0  0  0  0  0  0
   14.7425   10.0739   19.0802 O   0  0  0  0  0  0  0  0  0  0  0  0
    5.1894    9.4673   20.7118 C   0  0  0  0  0  0  0  0  0  0  0  0
    7.3773    8.8224   21.4870 C   0  0  0  0  0  0  0  0  0  0  0  0
    8.4391    6.6439   21.0235 C   0  0  0  0  0  0  0  0  0  0  0  0
    9.6494   11.1353   20.4167 C   0  0  0  0  0  0  0  0  0  0  0  0
    8.1431    7.6829   21.9046 C   0  0  0  0  0  0  0  0  0  0  0  0
    7.7796   10.1314   21.5115 N   0  0  0  0  0  0  0  0  0  0  0  0
    9.2768    5.6183   21.4437 C   0  0  0  0  0  0  0  0  0  0  0  0
    8.6315    7.7322   23.1768 C   0  0  0  0  0  0  0  0  0  0  0  0
   13.0537    9.9821   20.5781 C   0  0  0  0  0  0  0  0  0  0  0  0
   10.3850    4.6575   23.2386 O   0  0  0  0  0  0  0  0  0  0  0  0
    4.2069    6.8450   20.7994 C   0  0  0  0  0  0  0  0  0  0  0  0
    3.0726   10.1043   19.8522 O   0  0  0  0  0  0  0  0  0  0  0  0
    5.5057    7.1196   21.1155 C   0  0  0  0  0  0  0  0  0  0  0  0
    7.0367   11.0229   21.9948 O   0  0  0  0  0  0  0  0  0  0  0  0
  1  8  4  0
  1 12  4  0
  2  9  1  0
  2 11  4  0
  2 25  4  0
  3 12  4  0
  3 14  1  0
  3 23  4  0
  4 13  4  0
  4 21  4  0
  4 24  1  0
  5  8  4  0
  5 23  4  0
  6 18  2  0
  7 15  4  0
  7 16  1  0
  7 27  4  0
  8 18  1  0
 10 18  1  0
 10 20  1  0
 11 15  4  0
 11 26  1  0
 13 22  4  0
 16 19  1  0
 16 20  2  0
 17 19  4  0
 17 21  4  0
 19 22  4  0
 20 28  1  0
 25 27  4  0
M  END
$$$$

 Created by Python create_sdf_string function

 28 30  0  0  0  0  0  0  0  0999 V2000
   11.4592   11.2893   18.7941 C   0  0  0  0  0  0  0  0  0  0  0  0
    3.4202    7.9009   20.3866 C   0  0  0  0  0  0  0  0  0  0  0  0
   13.5280   10.3522   19.3586 C   0  0  0  0  0  0  0  0  0  0  0  0
    9.6923    5.6468   22.7891 C   0  0  0  0  0  0  0  0  0  0  0  0
   11.7756   10.2554   20.8841 N   0  0  0  0  0  0  0  0  0  0  0  0
    8.9876   11.9370   19.8757 O   0  0  0  0  0  0  0  0  0  0  0  0
    6.0167    8.4478   21.1089 C   0  0  0  0  0  0  0  0  0  0  0  0
   11.0002   10.8890   20.0262 C   0  0  0  0  0  0  0  0  0  0  0  0
    2.1721    7.7393   20.0315 O   0  0  0  0  0  0  0  0  0  0  0  0
    9.1107   10.3880   21.3769 N   0  0  0  0  0  0  0  0  0  0  0  0
    3.9102    9.2008   20.3124 C   0  0  0  0  0  0  0  0  0  0  0  0
   12.7292   10.9960   18.4597 C   0  0  0  0  0  0  0  0  0  0  0  0
    9.3798    6.6793   23.6625 C   0  0  0  0  0  0  0  0  0  0  0  0
   14.7425   10.0739   19.0802 O   0  0  0  0  0  0  0  0  0  0  0  0
    5.1894    9.4673   20.7118 C   0  0  0  0  0  0  0  0  0  0  0  0
    7.3773    8.8224   21.4870 C   0  0  0  0  0  0  0  0  0  0  0  0
    8.4391    6.6439   21.0235 C   0  0  0  0  0  0  0  0  0  0  0  0
    9.6494   11.1353   20.4167 C   0  0  0  0  0  0  0  0  0  0  0  0
    8.1431    7.6829   21.9046 C   0  0  0  0  0  0  0  0  0  0  0  0
    7.7796   10.1314   21.5115 N   0  0  0  0  0  0  0  0  0  0  0  0
    9.2768    5.6183   21.4437 C   0  0  0  0  0  0  0  0  0  0  0  0
    8.6315    7.7322   23.1768 C   0  0  0  0  0  0  0  0  0  0  0  0
   13.0537    9.9821   20.5781 C   0  0  0  0  0  0  0  0  0  0  0  0
   10.3850    4.6575   23.2386 O   0  0  0  0  0  0  0  0  0  0  0  0
    4.2069    6.8450   20.7994 C   0  0  0  0  0  0  0  0  0  0  0  0
    3.0726   10.1043   19.8522 O   0  0  0  0  0  0  0  0  0  0  0  0
    5.5057    7.1196   21.1155 C   0  0  0  0  0  0  0  0  0  0  0  0
    7.0367   11.0229   21.9948 O   0  0  0  0  0  0  0  0  0  0  0  0
  1  8  4  0
  1 12  4  0
  2  9  1  0
  2 11  4  0
  2 25  4  0
  3 12  4  0
  3 14  1  0
  3 23  4  0
  4 13  4  0
  4 21  4  0
  4 24  1  0
  5  8  4  0
  5 23  4  0
  6 18  2  0
  7 15  4  0
  7 16  1  0
  7 27  4  0
  8 18  1  0
 10 18  1  0
 10 20  1  0
 11 15  4  0
 11 26  1  0
 13 22  4  0
 16 19  1  0
 16 20  2  0
 17 19  4  0
 17 21  4  0
 19 22  4  0
 20 28  1  0
 25 27  4  0
M  END
$$$$

 Created by Python create_sdf_string function

 28 30  0  0  0  0  0  0  0  0999 V2000
   11.4592   11.2893   18.7941 C   0  0  0  0  0  0  0  0  0  0  0  0
    3.4202    7.9009   20.3866 C   0  0  0  0  0  0  0  0  0  0  0  0
   13.5280   10.3522   19.3586 C   0  0  0  0  0  0  0  0  0  0  0  0
    9.6923    5.6468   22.7891 C   0  0  0  0  0  0  0  0  0  0  0  0
   11.7756   10.2554   20.8841 N   0  0  0  0  0  0  0  0  0  0  0  0
    8.9876   11.9370   19.8757 O   0  0  0  0  0  0  0  0  0  0  0  0
    6.0167    8.4478   21.1089 C   0  0  0  0  0  0  0  0  0  0  0  0
   11.0002   10.8890   20.0262 C   0  0  0  0  0  0  0  0  0  0  0  0
    2.1721    7.7393   20.0315 O   0  0  0  0  0  0  0  0  0  0  0  0
    9.1107   10.3880   21.3769 N   0  0  0  0  0  0  0  0  0  0  0  0
    3.9102    9.2008   20.3124 C   0  0  0  0  0  0  0  0  0  0  0  0
   12.7292   10.9960   18.4597 C   0  0  0  0  0  0  0  0  0  0  0  0
    9.3798    6.6793   23.6625 C   0  0  0  0  0  0  0  0  0  0  0  0
   14.7425   10.0739   19.0802 O   0  0  0  0  0  0  0  0  0  0  0  0
    5.1894    9.4673   20.7118 C   0  0  0  0  0  0  0  0  0  0  0  0
    7.3773    8.8224   21.4870 C   0  0  0  0  0  0  0  0  0  0  0  0
    8.4391    6.6439   21.0235 C   0  0  0  0  0  0  0  0  0  0  0  0
    9.6494   11.1353   20.4167 C   0  0  0  0  0  0  0  0  0  0  0  0
    8.1431    7.6829   21.9046 C   0  0  0  0  0  0  0  0  0  0  0  0
    7.7796   10.1314   21.5115 N   0  0  0  0  0  0  0  0  0  0  0  0
    9.2768    5.6183   21.4437 C   0  0  0  0  0  0  0  0  0  0  0  0
    8.6315    7.7322   23.1768 C   0  0  0  0  0  0  0  0  0  0  0  0
   13.0537    9.9821   20.5781 C   0  0  0  0  0  0  0  0  0  0  0  0
   10.3850    4.6575   23.2386 O   0  0  0  0  0  0  0  0  0  0  0  0
    4.2069    6.8450   20.7994 C   0  0  0  0  0  0  0  0  0  0  0  0
    3.0726   10.1043   19.8522 O   0  0  0  0  0  0  0  0  0  0  0  0
    5.5057    7.1196   21.1155 C   0  0  0  0  0  0  0  0  0  0  0  0
    7.0367   11.0229   21.9948 O   0  0  0  0  0  0  0  0  0  0  0  0
  1  8  4  0
  1 12  4  0
  2  9  1  0
  2 11  4  0
  2 25  4  0
  3 12  4  0
  3 14  1  0
  3 23  4  0
  4 13  4  0
  4 21  4  0
  4 24  1  0
  5  8  4  0
  5 23  4  0
  6 18  2  0
  7 15  4  0
  7 16  1  0
  7 27  4  0
  8 18  1  0
 10 18  1  0
 10 20  1  0
 11 15  4  0
 11 26  1  0
 13 22  4  0
 16 19  1  0
 16 20  2  0
 17 19  4  0
 17 21  4  0
 19 22  4  0
 20 28  1  0
 25 27  4  0
M  END
$$$$

 Created by Python create_sdf_string function

 28 30  0  0  0  0  0  0  0  0999 V2000
   11.4592   11.2893   18.7941 C   0  0  0  0  0  0  0  0  0  0  0  0
    3.4202    7.9009   20.3866 C   0  0  0  0  0  0  0  0  0  0  0  0
   13.5280   10.3522   19.3586 C   0  0  0  0  0  0  0  0  0  0  0  0
    9.6923    5.6468   22.7891 C   0  0  0  0  0  0  0  0  0  0  0  0
   11.7756   10.2554   20.8841 N   0  0  0  0  0  0  0  0  0  0  0  0
    8.9876   11.9370   19.8757 O   0  0  0  0  0  0  0  0  0  0  0  0
    6.0167    8.4478   21.1089 C   0  0  0  0  0  0  0  0  0  0  0  0
   11.0002   10.8890   20.0262 C   0  0  0  0  0  0  0  0  0  0  0  0
    2.1721    7.7393   20.0315 O   0  0  0  0  0  0  0  0  0  0  0  0
    9.1107   10.3880   21.3769 N   0  0  0  0  0  0  0  0  0  0  0  0
    3.9102    9.2008   20.3124 C   0  0  0  0  0  0  0  0  0  0  0  0
   12.7292   10.9960   18.4597 C   0  0  0  0  0  0  0  0  0  0  0  0
    9.3798    6.6793   23.6625 C   0  0  0  0  0  0  0  0  0  0  0  0
   14.7425   10.0739   19.0802 O   0  0  0  0  0  0  0  0  0  0  0  0
    5.1894    9.4673   20.7118 C   0  0  0  0  0  0  0  0  0  0  0  0
    7.3773    8.8224   21.4870 C   0  0  0  0  0  0  0  0  0  0  0  0
    8.4391    6.6439   21.0235 C   0  0  0  0  0  0  0  0  0  0  0  0
    9.6494   11.1353   20.4167 C   0  0  0  0  0  0  0  0  0  0  0  0
    8.1431    7.6829   21.9046 C   0  0  0  0  0  0  0  0  0  0  0  0
    7.7796   10.1314   21.5115 N   0  0  0  0  0  0  0  0  0  0  0  0
    9.2768    5.6183   21.4437 C   0  0  0  0  0  0  0  0  0  0  0  0
    8.6315    7.7322   23.1768 C   0  0  0  0  0  0  0  0  0  0  0  0
   13.0537    9.9821   20.5781 C   0  0  0  0  0  0  0  0  0  0  0  0
   10.3850    4.6575   23.2386 O   0  0  0  0  0  0  0  0  0  0  0  0
    4.2069    6.8450   20.7994 C   0  0  0  0  0  0  0  0  0  0  0  0
    3.0726   10.1043   19.8522 O   0  0  0  0  0  0  0  0  0  0  0  0
    5.5057    7.1196   21.1155 C   0  0  0  0  0  0  0  0  0  0  0  0
    7.0367   11.0229   21.9948 O   0  0  0  0  0  0  0  0  0  0  0  0
  1  8  4  0
  1 12  4  0
  2  9  1  0
  2 11  4  0
  2 25  4  0
  3 12  4  0
  3 14  1  0
  3 23  4  0
  4 13  4  0
  4 21  4  0
  4 24  1  0
  5  8  4  0
  5 23  4  0
  6 18  2  0
  7 15  4  0
  7 16  1  0
  7 27  4  0
  8 18  1  0
 10 18  1  0
 10 20  1  0
 11 15  4  0
 11 26  1  0
 13 22  4  0
 16 19  1  0
 16 20  2  0
 17 19  4  0
 17 21  4  0
 19 22  4  0
 20 28  1  0
 25 27  4  0
M  END
$$$$

 Created by Python create_sdf_string function

 28 30  0  0  0  0  0  0  0  0999 V2000
   11.4592   11.2893   18.7941 C   0  0  0  0  0  0  0  0  0  0  0  0
    3.4202    7.9009   20.3866 C   0  0  0  0  0  0  0  0  0  0  0  0
   13.5280   10.3522   19.3586 C   0  0  0  0  0  0  0  0  0  0  0  0
    9.6923    5.6468   22.7891 C   0  0  0  0  0  0  0  0  0  0  0  0
   11.7756   10.2554   20.8841 N   0  0  0  0  0  0  0  0  0  0  0  0
    8.9876   11.9370   19.8757 O   0  0  0  0  0  0  0  0  0  0  0  0
    6.0167    8.4478   21.1089 C   0  0  0  0  0  0  0  0  0  0  0  0
   11.0002   10.8890   20.0262 C   0  0  0  0  0  0  0  0  0  0  0  0
    2.1721    7.7393   20.0315 O   0  0  0  0  0  0  0  0  0  0  0  0
    9.1107   10.3880   21.3769 N   0  0  0  0  0  0  0  0  0  0  0  0
    3.9102    9.2008   20.3124 C   0  0  0  0  0  0  0  0  0  0  0  0
   12.7292   10.9960   18.4597 C   0  0  0  0  0  0  0  0  0  0  0  0
    9.3798    6.6793   23.6625 C   0  0  0  0  0  0  0  0  0  0  0  0
   14.7425   10.0739   19.0802 O   0  0  0  0  0  0  0  0  0  0  0  0
    5.1894    9.4673   20.7118 C   0  0  0  0  0  0  0  0  0  0  0  0
    7.3773    8.8224   21.4870 C   0  0  0  0  0  0  0  0  0  0  0  0
    8.4391    6.6439   21.0235 C   0  0  0  0  0  0  0  0  0  0  0  0
    9.6494   11.1353   20.4167 C   0  0  0  0  0  0  0  0  0  0  0  0
    8.1431    7.6829   21.9046 C   0  0  0  0  0  0  0  0  0  0  0  0
    7.7796   10.1314   21.5115 N   0  0  0  0  0  0  0  0  0  0  0  0
    9.2768    5.6183   21.4437 C   0  0  0  0  0  0  0  0  0  0  0  0
    8.6315    7.7322   23.1768 C   0  0  0  0  0  0  0  0  0  0  0  0
   13.0537    9.9821   20.5781 C   0  0  0  0  0  0  0  0  0  0  0  0
   10.3850    4.6575   23.2386 O   0  0  0  0  0  0  0  0  0  0  0  0
    4.2069    6.8450   20.7994 C   0  0  0  0  0  0  0  0  0  0  0  0
    3.0726   10.1043   19.8522 O   0  0  0  0  0  0  0  0  0  0  0  0
    5.5057    7.1196   21.1155 C   0  0  0  0  0  0  0  0  0  0  0  0
    7.0367   11.0229   21.9948 O   0  0  0  0  0  0  0  0  0  0  0  0
  1  8  4  0
  1 12  4  0
  2  9  1  0
  2 11  4  0
  2 25  4  0
  3 12  4  0
  3 14  1  0
  3 23  4  0
  4 13  4  0
  4 21  4  0
  4 24  1  0
  5  8  4  0
  5 23  4  0
  6 18  2  0
  7 15  4  0
  7 16  1  0
  7 27  4  0
  8 18  1  0
 10 18  1  0
 10 20  1  0
 11 15  4  0
 11 26  1  0
 13 22  4  0
 16 19  1  0
 16 20  2  0
 17 19  4  0
 17 21  4  0
 19 22  4  0
 20 28  1  0
 25 27  4  0
M  END
$$$$

 Created by Python create_sdf_string function

 28 30  0  0  0  0  0  0  0  0999 V2000
   11.4592   11.2893   18.7941 C   0  0  0  0  0  0  0  0  0  0  0  0
    3.4202    7.9009   20.3866 C   0  0  0  0  0  0  0  0  0  0  0  0
   13.5280   10.3522   19.3586 C   0  0  0  0  0  0  0  0  0  0  0  0
    9.6923    5.6468   22.7891 C   0  0  0  0  0  0  0  0  0  0  0  0
   11.7756   10.2554   20.8841 N   0  0  0  0  0  0  0  0  0  0  0  0
    8.9876   11.9370   19.8757 O   0  0  0  0  0  0  0  0  0  0  0  0
    6.0167    8.4478   21.1089 C   0  0  0  0  0  0  0  0  0  0  0  0
   11.0002   10.8890   20.0262 C   0  0  0  0  0  0  0  0  0  0  0  0
    2.1721    7.7393   20.0315 O   0  0  0  0  0  0  0  0  0  0  0  0
    9.1107   10.3880   21.3769 N   0  0  0  0  0  0  0  0  0  0  0  0
    3.9102    9.2008   20.3124 C   0  0  0  0  0  0  0  0  0  0  0  0
   12.7292   10.9960   18.4597 C   0  0  0  0  0  0  0  0  0  0  0  0
    9.3798    6.6793   23.6625 C   0  0  0  0  0  0  0  0  0  0  0  0
   14.7425   10.0739   19.0802 O   0  0  0  0  0  0  0  0  0  0  0  0
    5.1894    9.4673   20.7118 C   0  0  0  0  0  0  0  0  0  0  0  0
    7.3773    8.8224   21.4870 C   0  0  0  0  0  0  0  0  0  0  0  0
    8.4391    6.6439   21.0235 C   0  0  0  0  0  0  0  0  0  0  0  0
    9.6494   11.1353   20.4167 C   0  0  0  0  0  0  0  0  0  0  0  0
    8.1431    7.6829   21.9046 C   0  0  0  0  0  0  0  0  0  0  0  0
    7.7796   10.1314   21.5115 N   0  0  0  0  0  0  0  0  0  0  0  0
    9.2768    5.6183   21.4437 C   0  0  0  0  0  0  0  0  0  0  0  0
    8.6315    7.7322   23.1768 C   0  0  0  0  0  0  0  0  0  0  0  0
   13.0537    9.9821   20.5781 C   0  0  0  0  0  0  0  0  0  0  0  0
   10.3850    4.6575   23.2386 O   0  0  0  0  0  0  0  0  0  0  0  0
    4.2069    6.8450   20.7994 C   0  0  0  0  0  0  0  0  0  0  0  0
    3.0726   10.1043   19.8522 O   0  0  0  0  0  0  0  0  0  0  0  0
    5.5057    7.1196   21.1155 C   0  0  0  0  0  0  0  0  0  0  0  0
    7.0367   11.0229   21.9948 O   0  0  0  0  0  0  0  0  0  0  0  0
  1  8  4  0
  1 12  4  0
  2  9  1  0
  2 11  4  0
  2 25  4  0
  3 12  4  0
  3 14  1  0
  3 23  4  0
  4 13  4  0
  4 21  4  0
  4 24  1  0
  5  8  4  0
  5 23  4  0
  6 18  2  0
  7 15  4  0
  7 16  1  0
  7 27  4  0
  8 18  1  0
 10 18  1  0
 10 20  1  0
 11 15  4  0
 11 26  1  0
 13 22  4  0
 16 19  1  0
 16 20  2  0
 17 19  4  0
 17 21  4  0
 19 22  4  0
 20 28  1  0
 25 27  4  0
M  END
$$$$

 Created by Python create_sdf_string function

 28 30  0  0  0  0  0  0  0  0999 V2000
   11.4592   11.2893   18.7941 C   0  0  0  0  0  0  0  0  0  0  0  0
    3.4202    7.9009   20.3866 C   0  0  0  0  0  0  0  0  0  0  0  0
   13.5280   10.3522   19.3586 C   0  0  0  0  0  0  0  0  0  0  0  0
    9.6923    5.6468   22.7891 C   0  0  0  0  0  0  0  0  0  0  0  0
   11.7756   10.2554   20.8841 N   0  0  0  0  0  0  0  0  0  0  0  0
    8.9876   11.9370   19.8757 O   0  0  0  0  0  0  0  0  0  0  0  0
    6.0167    8.4478   21.1089 C   0  0  0  0  0  0  0  0  0  0  0  0
   11.0002   10.8890   20.0262 C   0  0  0  0  0  0  0  0  0  0  0  0
    2.1721    7.7393   20.0315 O   0  0  0  0  0  0  0  0  0  0  0  0
    9.1107   10.3880   21.3769 N   0  0  0  0  0  0  0  0  0  0  0  0
    3.9102    9.2008   20.3124 C   0  0  0  0  0  0  0  0  0  0  0  0
   12.7292   10.9960   18.4597 C   0  0  0  0  0  0  0  0  0  0  0  0
    9.3798    6.6793   23.6625 C   0  0  0  0  0  0  0  0  0  0  0  0
   14.7425   10.0739   19.0802 O   0  0  0  0  0  0  0  0  0  0  0  0
    5.1894    9.4673   20.7118 C   0  0  0  0  0  0  0  0  0  0  0  0
    7.3773    8.8224   21.4870 C   0  0  0  0  0  0  0  0  0  0  0  0
    8.4391    6.6439   21.0235 C   0  0  0  0  0  0  0  0  0  0  0  0
    9.6494   11.1353   20.4167 C   0  0  0  0  0  0  0  0  0  0  0  0
    8.1431    7.6829   21.9046 C   0  0  0  0  0  0  0  0  0  0  0  0
    7.7796   10.1314   21.5115 N   0  0  0  0  0  0  0  0  0  0  0  0
    9.2768    5.6183   21.4437 C   0  0  0  0  0  0  0  0  0  0  0  0
    8.6315    7.7322   23.1768 C   0  0  0  0  0  0  0  0  0  0  0  0
   13.0537    9.9821   20.5781 C   0  0  0  0  0  0  0  0  0  0  0  0
   10.3850    4.6575   23.2386 O   0  0  0  0  0  0  0  0  0  0  0  0
    4.2069    6.8450   20.7994 C   0  0  0  0  0  0  0  0  0  0  0  0
    3.0726   10.1043   19.8522 O   0  0  0  0  0  0  0  0  0  0  0  0
    5.5057    7.1196   21.1155 C   0  0  0  0  0  0  0  0  0  0  0  0
    7.0367   11.0229   21.9948 O   0  0  0  0  0  0  0  0  0  0  0  0
  1  8  4  0
  1 12  4  0
  2  9  1  0
  2 11  4  0
  2 25  4  0
  3 12  4  0
  3 14  1  0
  3 23  4  0
  4 13  4  0
  4 21  4  0
  4 24  1  0
  5  8  4  0
  5 23  4  0
  6 18  2  0
  7 15  4  0
  7 16  1  0
  7 27  4  0
  8 18  1  0
 10 18  1  0
 10 20  1  0
 11 15  4  0
 11 26  1  0
 13 22  4  0
 16 19  1  0
 16 20  2  0
 17 19  4  0
 17 21  4  0
 19 22  4  0
 20 28  1  0
 25 27  4  0
M  END
$$$$

 Created by Python create_sdf_string function

 28 30  0  0  0  0  0  0  0  0999 V2000
   11.4592   11.2893   18.7941 C   0  0  0  0  0  0  0  0  0  0  0  0
    3.4202    7.9009   20.3866 C   0  0  0  0  0  0  0  0  0  0  0  0
   13.5280   10.3522   19.3586 C   0  0  0  0  0  0  0  0  0  0  0  0
    9.6923    5.6468   22.7891 C   0  0  0  0  0  0  0  0  0  0  0  0
   11.7756   10.2554   20.8841 N   0  0  0  0  0  0  0  0  0  0  0  0
    8.9876   11.9370   19.8757 O   0  0  0  0  0  0  0  0  0  0  0  0
    6.0167    8.4478   21.1089 C   0  0  0  0  0  0  0  0  0  0  0  0
   11.0002   10.8890   20.0262 C   0  0  0  0  0  0  0  0  0  0  0  0
    2.1721    7.7393   20.0315 O   0  0  0  0  0  0  0  0  0  0  0  0
    9.1107   10.3880   21.3769 N   0  0  0  0  0  0  0  0  0  0  0  0
    3.9102    9.2008   20.3124 C   0  0  0  0  0  0  0  0  0  0  0  0
   12.7292   10.9960   18.4597 C   0  0  0  0  0  0  0  0  0  0  0  0
    9.3798    6.6793   23.6625 C   0  0  0  0  0  0  0  0  0  0  0  0
   14.7425   10.0739   19.0802 O   0  0  0  0  0  0  0  0  0  0  0  0
    5.1894    9.4673   20.7118 C   0  0  0  0  0  0  0  0  0  0  0  0
    7.3773    8.8224   21.4870 C   0  0  0  0  0  0  0  0  0  0  0  0
    8.4391    6.6439   21.0235 C   0  0  0  0  0  0  0  0  0  0  0  0
    9.6494   11.1353   20.4167 C   0  0  0  0  0  0  0  0  0  0  0  0
    8.1431    7.6829   21.9046 C   0  0  0  0  0  0  0  0  0  0  0  0
    7.7796   10.1314   21.5115 N   0  0  0  0  0  0  0  0  0  0  0  0
    9.2768    5.6183   21.4437 C   0  0  0  0  0  0  0  0  0  0  0  0
    8.6315    7.7322   23.1768 C   0  0  0  0  0  0  0  0  0  0  0  0
   13.0537    9.9821   20.5781 C   0  0  0  0  0  0  0  0  0  0  0  0
   10.3850    4.6575   23.2386 O   0  0  0  0  0  0  0  0  0  0  0  0
    4.2069    6.8450   20.7994 C   0  0  0  0  0  0  0  0  0  0  0  0
    3.0726   10.1043   19.8522 O   0  0  0  0  0  0  0  0  0  0  0  0
    5.5057    7.1196   21.1155 C   0  0  0  0  0  0  0  0  0  0  0  0
    7.0367   11.0229   21.9948 O   0  0  0  0  0  0  0  0  0  0  0  0
  1  8  4  0
  1 12  4  0
  2  9  1  0
  2 11  4  0
  2 25  4  0
  3 12  4  0
  3 14  1  0
  3 23  4  0
  4 13  4  0
  4 21  4  0
  4 24  1  0
  5  8  4  0
  5 23  4  0
  6 18  2  0
  7 15  4  0
  7 16  1  0
  7 27  4  0
  8 18  1  0
 10 18  1  0
 10 20  1  0
 11 15  4  0
 11 26  1  0
 13 22  4  0
 16 19  1  0
 16 20  2  0
 17 19  4  0
 17 21  4  0
 19 22  4  0
 20 28  1  0
 25 27  4  0
M  END
$$$$

 Created by Python create_sdf_string function

 28 30  0  0  0  0  0  0  0  0999 V2000
   11.4592   11.2893   18.7941 C   0  0  0  0  0  0  0  0  0  0  0  0
    3.4202    7.9009   20.3866 C   0  0  0  0  0  0  0  0  0  0  0  0
   13.5280   10.3522   19.3586 C   0  0  0  0  0  0  0  0  0  0  0  0
    9.6923    5.6468   22.7891 C   0  0  0  0  0  0  0  0  0  0  0  0
   11.7756   10.2554   20.8841 N   0  0  0  0  0  0  0  0  0  0  0  0
    8.9876   11.9370   19.8757 O   0  0  0  0  0  0  0  0  0  0  0  0
    6.0167    8.4478   21.1089 C   0  0  0  0  0  0  0  0  0  0  0  0
   11.0002   10.8890   20.0262 C   0  0  0  0  0  0  0  0  0  0  0  0
    2.1721    7.7393   20.0315 O   0  0  0  0  0  0  0  0  0  0  0  0
    9.1107   10.3880   21.3769 N   0  0  0  0  0  0  0  0  0  0  0  0
    3.9102    9.2008   20.3124 C   0  0  0  0  0  0  0  0  0  0  0  0
   12.7292   10.9960   18.4597 C   0  0  0  0  0  0  0  0  0  0  0  0
    9.3798    6.6793   23.6625 C   0  0  0  0  0  0  0  0  0  0  0  0
   14.7425   10.0739   19.0802 O   0  0  0  0  0  0  0  0  0  0  0  0
    5.1894    9.4673   20.7118 C   0  0  0  0  0  0  0  0  0  0  0  0
    7.3773    8.8224   21.4870 C   0  0  0  0  0  0  0  0  0  0  0  0
    8.4391    6.6439   21.0235 C   0  0  0  0  0  0  0  0  0  0  0  0
    9.6494   11.1353   20.4167 C   0  0  0  0  0  0  0  0  0  0  0  0
    8.1431    7.6829   21.9046 C   0  0  0  0  0  0  0  0  0  0  0  0
    7.7796   10.1314   21.5115 N   0  0  0  0  0  0  0  0  0  0  0  0
    9.2768    5.6183   21.4437 C   0  0  0  0  0  0  0  0  0  0  0  0
    8.6315    7.7322   23.1768 C   0  0  0  0  0  0  0  0  0  0  0  0
   13.0537    9.9821   20.5781 C   0  0  0  0  0  0  0  0  0  0  0  0
   10.3850    4.6575   23.2386 O   0  0  0  0  0  0  0  0  0  0  0  0
    4.2069    6.8450   20.7994 C   0  0  0  0  0  0  0  0  0  0  0  0
    3.0726   10.1043   19.8522 O   0  0  0  0  0  0  0  0  0  0  0  0
    5.5057    7.1196   21.1155 C   0  0  0  0  0  0  0  0  0  0  0  0
    7.0367   11.0229   21.9948 O   0  0  0  0  0  0  0  0  0  0  0  0
  1  8  4  0
  1 12  4  0
  2  9  1  0
  2 11  4  0
  2 25  4  0
  3 12  4  0
  3 14  1  0
  3 23  4  0
  4 13  4  0
  4 21  4  0
  4 24  1  0
  5  8  4  0
  5 23  4  0
  6 18  2  0
  7 15  4  0
  7 16  1  0
  7 27  4  0
  8 18  1  0
 10 18  1  0
 10 20  1  0
 11 15  4  0
 11 26  1  0
 13 22  4  0
 16 19  1  0
 16 20  2  0
 17 19  4  0
 17 21  4  0
 19 22  4  0
 20 28  1  0
 25 27  4  0
M  END
$$$$

 Created by Python create_sdf_string function

 28 30  0  0  0  0  0  0  0  0999 V2000
   11.4592   11.2893   18.7941 C   0  0  0  0  0  0  0  0  0  0  0  0
    3.4202    7.9009   20.3866 C   0  0  0  0  0  0  0  0  0  0  0  0
   13.5280   10.3522   19.3586 C   0  0  0  0  0  0  0  0  0  0  0  0
    9.6923    5.6468   22.7891 C   0  0  0  0  0  0  0  0  0  0  0  0
   11.7756   10.2554   20.8841 N   0  0  0  0  0  0  0  0  0  0  0  0
    8.9876   11.9370   19.8757 O   0  0  0  0  0  0  0  0  0  0  0  0
    6.0167    8.4478   21.1089 C   0  0  0  0  0  0  0  0  0  0  0  0
   11.0002   10.8890   20.0262 C   0  0  0  0  0  0  0  0  0  0  0  0
    2.1721    7.7393   20.0315 O   0  0  0  0  0  0  0  0  0  0  0  0
    9.1107   10.3880   21.3769 N   0  0  0  0  0  0  0  0  0  0  0  0
    3.9102    9.2008   20.3124 C   0  0  0  0  0  0  0  0  0  0  0  0
   12.7292   10.9960   18.4597 C   0  0  0  0  0  0  0  0  0  0  0  0
    9.3798    6.6793   23.6625 C   0  0  0  0  0  0  0  0  0  0  0  0
   14.7425   10.0739   19.0802 O   0  0  0  0  0  0  0  0  0  0  0  0
    5.1894    9.4673   20.7118 C   0  0  0  0  0  0  0  0  0  0  0  0
    7.3773    8.8224   21.4870 C   0  0  0  0  0  0  0  0  0  0  0  0
    8.4391    6.6439   21.0235 C   0  0  0  0  0  0  0  0  0  0  0  0
    9.6494   11.1353   20.4167 C   0  0  0  0  0  0  0  0  0  0  0  0
    8.1431    7.6829   21.9046 C   0  0  0  0  0  0  0  0  0  0  0  0
    7.7796   10.1314   21.5115 N   0  0  0  0  0  0  0  0  0  0  0  0
    9.2768    5.6183   21.4437 C   0  0  0  0  0  0  0  0  0  0  0  0
    8.6315    7.7322   23.1768 C   0  0  0  0  0  0  0  0  0  0  0  0
   13.0537    9.9821   20.5781 C   0  0  0  0  0  0  0  0  0  0  0  0
   10.3850    4.6575   23.2386 O   0  0  0  0  0  0  0  0  0  0  0  0
    4.2069    6.8450   20.7994 C   0  0  0  0  0  0  0  0  0  0  0  0
    3.0726   10.1043   19.8522 O   0  0  0  0  0  0  0  0  0  0  0  0
    5.5057    7.1196   21.1155 C   0  0  0  0  0  0  0  0  0  0  0  0
    7.0367   11.0229   21.9948 O   0  0  0  0  0  0  0  0  0  0  0  0
  1  8  4  0
  1 12  4  0
  2  9  1  0
  2 11  4  0
  2 25  4  0
  3 12  4  0
  3 14  1  0
  3 23  4  0
  4 13  4  0
  4 21  4  0
  4 24  1  0
  5  8  4  0
  5 23  4  0
  6 18  2  0
  7 15  4  0
  7 16  1  0
  7 27  4  0
  8 18  1  0
 10 18  1  0
 10 20  1  0
 11 15  4  0
 11 26  1  0
 13 22  4  0
 16 19  1  0
 16 20  2  0
 17 19  4  0
 17 21  4  0
 19 22  4  0
 20 28  1  0
 25 27  4  0
M  END
$$$$

 Created by Python create_sdf_string function

 28 30  0  0  0  0  0  0  0  0999 V2000
   11.4592   11.2893   18.7941 C   0  0  0  0  0  0  0  0  0  0  0  0
    3.4202    7.9009   20.3866 C   0  0  0  0  0  0  0  0  0  0  0  0
   13.5280   10.3522   19.3586 C   0  0  0  0  0  0  0  0  0  0  0  0
    9.6923    5.6468   22.7891 C   0  0  0  0  0  0  0  0  0  0  0  0
   11.7756   10.2554   20.8841 N   0  0  0  0  0  0  0  0  0  0  0  0
    8.9876   11.9370   19.8757 O   0  0  0  0  0  0  0  0  0  0  0  0
    6.0167    8.4478   21.1089 C   0  0  0  0  0  0  0  0  0  0  0  0
   11.0002   10.8890   20.0262 C   0  0  0  0  0  0  0  0  0  0  0  0
    2.1721    7.7393   20.0315 O   0  0  0  0  0  0  0  0  0  0  0  0
    9.1107   10.3880   21.3769 N   0  0  0  0  0  0  0  0  0  0  0  0
    3.9102    9.2008   20.3124 C   0  0  0  0  0  0  0  0  0  0  0  0
   12.7292   10.9960   18.4597 C   0  0  0  0  0  0  0  0  0  0  0  0
    9.3798    6.6793   23.6625 C   0  0  0  0  0  0  0  0  0  0  0  0
   14.7425   10.0739   19.0802 O   0  0  0  0  0  0  0  0  0  0  0  0
    5.1894    9.4673   20.7118 C   0  0  0  0  0  0  0  0  0  0  0  0
    7.3773    8.8224   21.4870 C   0  0  0  0  0  0  0  0  0  0  0  0
    8.4391    6.6439   21.0235 C   0  0  0  0  0  0  0  0  0  0  0  0
    9.6494   11.1353   20.4167 C   0  0  0  0  0  0  0  0  0  0  0  0
    8.1431    7.6829   21.9046 C   0  0  0  0  0  0  0  0  0  0  0  0
    7.7796   10.1314   21.5115 N   0  0  0  0  0  0  0  0  0  0  0  0
    9.2768    5.6183   21.4437 C   0  0  0  0  0  0  0  0  0  0  0  0
    8.6315    7.7322   23.1768 C   0  0  0  0  0  0  0  0  0  0  0  0
   13.0537    9.9821   20.5781 C   0  0  0  0  0  0  0  0  0  0  0  0
   10.3850    4.6575   23.2386 O   0  0  0  0  0  0  0  0  0  0  0  0
    4.2069    6.8450   20.7994 C   0  0  0  0  0  0  0  0  0  0  0  0
    3.0726   10.1043   19.8522 O   0  0  0  0  0  0  0  0  0  0  0  0
    5.5057    7.1196   21.1155 C   0  0  0  0  0  0  0  0  0  0  0  0
    7.0367   11.0229   21.9948 O   0  0  0  0  0  0  0  0  0  0  0  0
  1  8  4  0
  1 12  4  0
  2  9  1  0
  2 11  4  0
  2 25  4  0
  3 12  4  0
  3 14  1  0
  3 23  4  0
  4 13  4  0
  4 21  4  0
  4 24  1  0
  5  8  4  0
  5 23  4  0
  6 18  2  0
  7 15  4  0
  7 16  1  0
  7 27  4  0
  8 18  1  0
 10 18  1  0
 10 20  1  0
 11 15  4  0
 11 26  1  0
 13 22  4  0
 16 19  1  0
 16 20  2  0
 17 19  4  0
 17 21  4  0
 19 22  4  0
 20 28  1  0
 25 27  4  0
M  END
$$$$

 Created by Python create_sdf_string function

 28 30  0  0  0  0  0  0  0  0999 V2000
   11.4592   11.2893   18.7941 C   0  0  0  0  0  0  0  0  0  0  0  0
    3.4202    7.9009   20.3866 C   0  0  0  0  0  0  0  0  0  0  0  0
   13.5280   10.3522   19.3586 C   0  0  0  0  0  0  0  0  0  0  0  0
    9.6923    5.6468   22.7891 C   0  0  0  0  0  0  0  0  0  0  0  0
   11.7756   10.2554   20.8841 N   0  0  0  0  0  0  0  0  0  0  0  0
    8.9876   11.9370   19.8757 O   0  0  0  0  0  0  0  0  0  0  0  0
    6.0167    8.4478   21.1089 C   0  0  0  0  0  0  0  0  0  0  0  0
   11.0002   10.8890   20.0262 C   0  0  0  0  0  0  0  0  0  0  0  0
    2.1721    7.7393   20.0315 O   0  0  0  0  0  0  0  0  0  0  0  0
    9.1107   10.3880   21.3769 N   0  0  0  0  0  0  0  0  0  0  0  0
    3.9102    9.2008   20.3124 C   0  0  0  0  0  0  0  0  0  0  0  0
   12.7292   10.9960   18.4597 C   0  0  0  0  0  0  0  0  0  0  0  0
    9.3798    6.6793   23.6625 C   0  0  0  0  0  0  0  0  0  0  0  0
   14.7425   10.0739   19.0802 O   0  0  0  0  0  0  0  0  0  0  0  0
    5.1894    9.4673   20.7118 C   0  0  0  0  0  0  0  0  0  0  0  0
    7.3773    8.8224   21.4870 C   0  0  0  0  0  0  0  0  0  0  0  0
    8.4391    6.6439   21.0235 C   0  0  0  0  0  0  0  0  0  0  0  0
    9.6494   11.1353   20.4167 C   0  0  0  0  0  0  0  0  0  0  0  0
    8.1431    7.6829   21.9046 C   0  0  0  0  0  0  0  0  0  0  0  0
    7.7796   10.1314   21.5115 N   0  0  0  0  0  0  0  0  0  0  0  0
    9.2768    5.6183   21.4437 C   0  0  0  0  0  0  0  0  0  0  0  0
    8.6315    7.7322   23.1768 C   0  0  0  0  0  0  0  0  0  0  0  0
   13.0537    9.9821   20.5781 C   0  0  0  0  0  0  0  0  0  0  0  0
   10.3850    4.6575   23.2386 O   0  0  0  0  0  0  0  0  0  0  0  0
    4.2069    6.8450   20.7994 C   0  0  0  0  0  0  0  0  0  0  0  0
    3.0726   10.1043   19.8522 O   0  0  0  0  0  0  0  0  0  0  0  0
    5.5057    7.1196   21.1155 C   0  0  0  0  0  0  0  0  0  0  0  0
    7.0367   11.0229   21.9948 O   0  0  0  0  0  0  0  0  0  0  0  0
  1  8  4  0
  1 12  4  0
  2  9  1  0
  2 11  4  0
  2 25  4  0
  3 12  4  0
  3 14  1  0
  3 23  4  0
  4 13  4  0
  4 21  4  0
  4 24  1  0
  5  8  4  0
  5 23  4  0
  6 18  2  0
  7 15  4  0
  7 16  1  0
  7 27  4  0
  8 18  1  0
 10 18  1  0
 10 20  1  0
 11 15  4  0
 11 26  1  0
 13 22  4  0
 16 19  1  0
 16 20  2  0
 17 19  4  0
 17 21  4  0
 19 22  4  0
 20 28  1  0
 25 27  4  0
M  END
$$$$

 Created by Python create_sdf_string function

 28 30  0  0  0  0  0  0  0  0999 V2000
   11.4592   11.2893   18.7941 C   0  0  0  0  0  0  0  0  0  0  0  0
    3.4202    7.9009   20.3866 C   0  0  0  0  0  0  0  0  0  0  0  0
   13.5280   10.3522   19.3586 C   0  0  0  0  0  0  0  0  0  0  0  0
    9.6923    5.6468   22.7891 C   0  0  0  0  0  0  0  0  0  0  0  0
   11.7756   10.2554   20.8841 N   0  0  0  0  0  0  0  0  0  0  0  0
    8.9876   11.9370   19.8757 O   0  0  0  0  0  0  0  0  0  0  0  0
    6.0167    8.4478   21.1089 C   0  0  0  0  0  0  0  0  0  0  0  0
   11.0002   10.8890   20.0262 C   0  0  0  0  0  0  0  0  0  0  0  0
    2.1721    7.7393   20.0315 O   0  0  0  0  0  0  0  0  0  0  0  0
    9.1107   10.3880   21.3769 N   0  0  0  0  0  0  0  0  0  0  0  0
    3.9102    9.2008   20.3124 C   0  0  0  0  0  0  0  0  0  0  0  0
   12.7292   10.9960   18.4597 C   0  0  0  0  0  0  0  0  0  0  0  0
    9.3798    6.6793   23.6625 C   0  0  0  0  0  0  0  0  0  0  0  0
   14.7425   10.0739   19.0802 O   0  0  0  0  0  0  0  0  0  0  0  0
    5.1894    9.4673   20.7118 C   0  0  0  0  0  0  0  0  0  0  0  0
    7.3773    8.8224   21.4870 C   0  0  0  0  0  0  0  0  0  0  0  0
    8.4391    6.6439   21.0235 C   0  0  0  0  0  0  0  0  0  0  0  0
    9.6494   11.1353   20.4167 C   0  0  0  0  0  0  0  0  0  0  0  0
    8.1431    7.6829   21.9046 C   0  0  0  0  0  0  0  0  0  0  0  0
    7.7796   10.1314   21.5115 N   0  0  0  0  0  0  0  0  0  0  0  0
    9.2768    5.6183   21.4437 C   0  0  0  0  0  0  0  0  0  0  0  0
    8.6315    7.7322   23.1768 C   0  0  0  0  0  0  0  0  0  0  0  0
   13.0537    9.9821   20.5781 C   0  0  0  0  0  0  0  0  0  0  0  0
   10.3850    4.6575   23.2386 O   0  0  0  0  0  0  0  0  0  0  0  0
    4.2069    6.8450   20.7994 C   0  0  0  0  0  0  0  0  0  0  0  0
    3.0726   10.1043   19.8522 O   0  0  0  0  0  0  0  0  0  0  0  0
    5.5057    7.1196   21.1155 C   0  0  0  0  0  0  0  0  0  0  0  0
    7.0367   11.0229   21.9948 O   0  0  0  0  0  0  0  0  0  0  0  0
  1  8  4  0
  1 12  4  0
  2  9  1  0
  2 11  4  0
  2 25  4  0
  3 12  4  0
  3 14  1  0
  3 23  4  0
  4 13  4  0
  4 21  4  0
  4 24  1  0
  5  8  4  0
  5 23  4  0
  6 18  2  0
  7 15  4  0
  7 16  1  0
  7 27  4  0
  8 18  1  0
 10 18  1  0
 10 20  1  0
 11 15  4  0
 11 26  1  0
 13 22  4  0
 16 19  1  0
 16 20  2  0
 17 19  4  0
 17 21  4  0
 19 22  4  0
 20 28  1  0
 25 27  4  0
M  END
$$$$

 Created by Python create_sdf_string function

 28 30  0  0  0  0  0  0  0  0999 V2000
   11.4592   11.2893   18.7941 C   0  0  0  0  0  0  0  0  0  0  0  0
    3.4202    7.9009   20.3866 C   0  0  0  0  0  0  0  0  0  0  0  0
   13.5280   10.3522   19.3586 C   0  0  0  0  0  0  0  0  0  0  0  0
    9.6923    5.6468   22.7891 C   0  0  0  0  0  0  0  0  0  0  0  0
   11.7756   10.2554   20.8841 N   0  0  0  0  0  0  0  0  0  0  0  0
    8.9876   11.9370   19.8757 O   0  0  0  0  0  0  0  0  0  0  0  0
    6.0167    8.4478   21.1089 C   0  0  0  0  0  0  0  0  0  0  0  0
   11.0002   10.8890   20.0262 C   0  0  0  0  0  0  0  0  0  0  0  0
    2.1721    7.7393   20.0315 O   0  0  0  0  0  0  0  0  0  0  0  0
    9.1107   10.3880   21.3769 N   0  0  0  0  0  0  0  0  0  0  0  0
    3.9102    9.2008   20.3124 C   0  0  0  0  0  0  0  0  0  0  0  0
   12.7292   10.9960   18.4597 C   0  0  0  0  0  0  0  0  0  0  0  0
    9.3798    6.6793   23.6625 C   0  0  0  0  0  0  0  0  0  0  0  0
   14.7425   10.0739   19.0802 O   0  0  0  0  0  0  0  0  0  0  0  0
    5.1894    9.4673   20.7118 C   0  0  0  0  0  0  0  0  0  0  0  0
    7.3773    8.8224   21.4870 C   0  0  0  0  0  0  0  0  0  0  0  0
    8.4391    6.6439   21.0235 C   0  0  0  0  0  0  0  0  0  0  0  0
    9.6494   11.1353   20.4167 C   0  0  0  0  0  0  0  0  0  0  0  0
    8.1431    7.6829   21.9046 C   0  0  0  0  0  0  0  0  0  0  0  0
    7.7796   10.1314   21.5115 N   0  0  0  0  0  0  0  0  0  0  0  0
    9.2768    5.6183   21.4437 C   0  0  0  0  0  0  0  0  0  0  0  0
    8.6315    7.7322   23.1768 C   0  0  0  0  0  0  0  0  0  0  0  0
   13.0537    9.9821   20.5781 C   0  0  0  0  0  0  0  0  0  0  0  0
   10.3850    4.6575   23.2386 O   0  0  0  0  0  0  0  0  0  0  0  0
    4.2069    6.8450   20.7994 C   0  0  0  0  0  0  0  0  0  0  0  0
    3.0726   10.1043   19.8522 O   0  0  0  0  0  0  0  0  0  0  0  0
    5.5057    7.1196   21.1155 C   0  0  0  0  0  0  0  0  0  0  0  0
    7.0367   11.0229   21.9948 O   0  0  0  0  0  0  0  0  0  0  0  0
  1  8  4  0
  1 12  4  0
  2  9  1  0
  2 11  4  0
  2 25  4  0
  3 12  4  0
  3 14  1  0
  3 23  4  0
  4 13  4  0
  4 21  4  0
  4 24  1  0
  5  8  4  0
  5 23  4  0
  6 18  2  0
  7 15  4  0
  7 16  1  0
  7 27  4  0
  8 18  1  0
 10 18  1  0
 10 20  1  0
 11 15  4  0
 11 26  1  0
 13 22  4  0
 16 19  1  0
 16 20  2  0
 17 19  4  0
 17 21  4  0
 19 22  4  0
 20 28  1  0
 25 27  4  0
M  END
$$$$

 Created by Python create_sdf_string function

 28 30  0  0  0  0  0  0  0  0999 V2000
   11.4592   11.2893   18.7941 C   0  0  0  0  0  0  0  0  0  0  0  0
    3.4202    7.9009   20.3866 C   0  0  0  0  0  0  0  0  0  0  0  0
   13.5280   10.3522   19.3586 C   0  0  0  0  0  0  0  0  0  0  0  0
    9.6923    5.6468   22.7891 C   0  0  0  0  0  0  0  0  0  0  0  0
   11.7756   10.2554   20.8841 N   0  0  0  0  0  0  0  0  0  0  0  0
    8.9876   11.9370   19.8757 O   0  0  0  0  0  0  0  0  0  0  0  0
    6.0167    8.4478   21.1089 C   0  0  0  0  0  0  0  0  0  0  0  0
   11.0002   10.8890   20.0262 C   0  0  0  0  0  0  0  0  0  0  0  0
    2.1721    7.7393   20.0315 O   0  0  0  0  0  0  0  0  0  0  0  0
    9.1107   10.3880   21.3769 N   0  0  0  0  0  0  0  0  0  0  0  0
    3.9102    9.2008   20.3124 C   0  0  0  0  0  0  0  0  0  0  0  0
   12.7292   10.9960   18.4597 C   0  0  0  0  0  0  0  0  0  0  0  0
    9.3798    6.6793   23.6625 C   0  0  0  0  0  0  0  0  0  0  0  0
   14.7425   10.0739   19.0802 O   0  0  0  0  0  0  0  0  0  0  0  0
    5.1894    9.4673   20.7118 C   0  0  0  0  0  0  0  0  0  0  0  0
    7.3773    8.8224   21.4870 C   0  0  0  0  0  0  0  0  0  0  0  0
    8.4391    6.6439   21.0235 C   0  0  0  0  0  0  0  0  0  0  0  0
    9.6494   11.1353   20.4167 C   0  0  0  0  0  0  0  0  0  0  0  0
    8.1431    7.6829   21.9046 C   0  0  0  0  0  0  0  0  0  0  0  0
    7.7796   10.1314   21.5115 N   0  0  0  0  0  0  0  0  0  0  0  0
    9.2768    5.6183   21.4437 C   0  0  0  0  0  0  0  0  0  0  0  0
    8.6315    7.7322   23.1768 C   0  0  0  0  0  0  0  0  0  0  0  0
   13.0537    9.9821   20.5781 C   0  0  0  0  0  0  0  0  0  0  0  0
   10.3850    4.6575   23.2386 O   0  0  0  0  0  0  0  0  0  0  0  0
    4.2069    6.8450   20.7994 C   0  0  0  0  0  0  0  0  0  0  0  0
    3.0726   10.1043   19.8522 O   0  0  0  0  0  0  0  0  0  0  0  0
    5.5057    7.1196   21.1155 C   0  0  0  0  0  0  0  0  0  0  0  0
    7.0367   11.0229   21.9948 O   0  0  0  0  0  0  0  0  0  0  0  0
  1  8  4  0
  1 12  4  0
  2  9  1  0
  2 11  4  0
  2 25  4  0
  3 12  4  0
  3 14  1  0
  3 23  4  0
  4 13  4  0
  4 21  4  0
  4 24  1  0
  5  8  4  0
  5 23  4  0
  6 18  2  0
  7 15  4  0
  7 16  1  0
  7 27  4  0
  8 18  1  0
 10 18  1  0
 10 20  1  0
 11 15  4  0
 11 26  1  0
 13 22  4  0
 16 19  1  0
 16 20  2  0
 17 19  4  0
 17 21  4  0
 19 22  4  0
 20 28  1  0
 25 27  4  0
M  END
$$$$

 Created by Python create_sdf_string function

 28 30  0  0  0  0  0  0  0  0999 V2000
   11.4592   11.2893   18.7941 C   0  0  0  0  0  0  0  0  0  0  0  0
    3.4202    7.9009   20.3866 C   0  0  0  0  0  0  0  0  0  0  0  0
   13.5280   10.3522   19.3586 C   0  0  0  0  0  0  0  0  0  0  0  0
    9.6923    5.6468   22.7891 C   0  0  0  0  0  0  0  0  0  0  0  0
   11.7756   10.2554   20.8841 N   0  0  0  0  0  0  0  0  0  0  0  0
    8.9876   11.9370   19.8757 O   0  0  0  0  0  0  0  0  0  0  0  0
    6.0167    8.4478   21.1089 C   0  0  0  0  0  0  0  0  0  0  0  0
   11.0002   10.8890   20.0262 C   0  0  0  0  0  0  0  0  0  0  0  0
    2.1721    7.7393   20.0315 O   0  0  0  0  0  0  0  0  0  0  0  0
    9.1107   10.3880   21.3769 N   0  0  0  0  0  0  0  0  0  0  0  0
    3.9102    9.2008   20.3124 C   0  0  0  0  0  0  0  0  0  0  0  0
   12.7292   10.9960   18.4597 C   0  0  0  0  0  0  0  0  0  0  0  0
    9.3798    6.6793   23.6625 C   0  0  0  0  0  0  0  0  0  0  0  0
   14.7425   10.0739   19.0802 O   0  0  0  0  0  0  0  0  0  0  0  0
    5.1894    9.4673   20.7118 C   0  0  0  0  0  0  0  0  0  0  0  0
    7.3773    8.8224   21.4870 C   0  0  0  0  0  0  0  0  0  0  0  0
    8.4391    6.6439   21.0235 C   0  0  0  0  0  0  0  0  0  0  0  0
    9.6494   11.1353   20.4167 C   0  0  0  0  0  0  0  0  0  0  0  0
    8.1431    7.6829   21.9046 C   0  0  0  0  0  0  0  0  0  0  0  0
    7.7796   10.1314   21.5115 N   0  0  0  0  0  0  0  0  0  0  0  0
    9.2768    5.6183   21.4437 C   0  0  0  0  0  0  0  0  0  0  0  0
    8.6315    7.7322   23.1768 C   0  0  0  0  0  0  0  0  0  0  0  0
   13.0537    9.9821   20.5781 C   0  0  0  0  0  0  0  0  0  0  0  0
   10.3850    4.6575   23.2386 O   0  0  0  0  0  0  0  0  0  0  0  0
    4.2069    6.8450   20.7994 C   0  0  0  0  0  0  0  0  0  0  0  0
    3.0726   10.1043   19.8522 O   0  0  0  0  0  0  0  0  0  0  0  0
    5.5057    7.1196   21.1155 C   0  0  0  0  0  0  0  0  0  0  0  0
    7.0367   11.0229   21.9948 O   0  0  0  0  0  0  0  0  0  0  0  0
  1  8  4  0
  1 12  4  0
  2  9  1  0
  2 11  4  0
  2 25  4  0
  3 12  4  0
  3 14  1  0
  3 23  4  0
  4 13  4  0
  4 21  4  0
  4 24  1  0
  5  8  4  0
  5 23  4  0
  6 18  2  0
  7 15  4  0
  7 16  1  0
  7 27  4  0
  8 18  1  0
 10 18  1  0
 10 20  1  0
 11 15  4  0
 11 26  1  0
 13 22  4  0
 16 19  1  0
 16 20  2  0
 17 19  4  0
 17 21  4  0
 19 22  4  0
 20 28  1  0
 25 27  4  0
M  END
$$$$

 Created by Python create_sdf_string function

 28 30  0  0  0  0  0  0  0  0999 V2000
   11.4592   11.2893   18.7941 C   0  0  0  0  0  0  0  0  0  0  0  0
    3.4202    7.9009   20.3866 C   0  0  0  0  0  0  0  0  0  0  0  0
   13.5280   10.3522   19.3586 C   0  0  0  0  0  0  0  0  0  0  0  0
    9.6923    5.6468   22.7891 C   0  0  0  0  0  0  0  0  0  0  0  0
   11.7756   10.2554   20.8841 N   0  0  0  0  0  0  0  0  0  0  0  0
    8.9876   11.9370   19.8757 O   0  0  0  0  0  0  0  0  0  0  0  0
    6.0167    8.4478   21.1089 C   0  0  0  0  0  0  0  0  0  0  0  0
   11.0002   10.8890   20.0262 C   0  0  0  0  0  0  0  0  0  0  0  0
    2.1721    7.7393   20.0315 O   0  0  0  0  0  0  0  0  0  0  0  0
    9.1107   10.3880   21.3769 N   0  0  0  0  0  0  0  0  0  0  0  0
    3.9102    9.2008   20.3124 C   0  0  0  0  0  0  0  0  0  0  0  0
   12.7292   10.9960   18.4597 C   0  0  0  0  0  0  0  0  0  0  0  0
    9.3798    6.6793   23.6625 C   0  0  0  0  0  0  0  0  0  0  0  0
   14.7425   10.0739   19.0802 O   0  0  0  0  0  0  0  0  0  0  0  0
    5.1894    9.4673   20.7118 C   0  0  0  0  0  0  0  0  0  0  0  0
    7.3773    8.8224   21.4870 C   0  0  0  0  0  0  0  0  0  0  0  0
    8.4391    6.6439   21.0235 C   0  0  0  0  0  0  0  0  0  0  0  0
    9.6494   11.1353   20.4167 C   0  0  0  0  0  0  0  0  0  0  0  0
    8.1431    7.6829   21.9046 C   0  0  0  0  0  0  0  0  0  0  0  0
    7.7796   10.1314   21.5115 N   0  0  0  0  0  0  0  0  0  0  0  0
    9.2768    5.6183   21.4437 C   0  0  0  0  0  0  0  0  0  0  0  0
    8.6315    7.7322   23.1768 C   0  0  0  0  0  0  0  0  0  0  0  0
   13.0537    9.9821   20.5781 C   0  0  0  0  0  0  0  0  0  0  0  0
   10.3850    4.6575   23.2386 O   0  0  0  0  0  0  0  0  0  0  0  0
    4.2069    6.8450   20.7994 C   0  0  0  0  0  0  0  0  0  0  0  0
    3.0726   10.1043   19.8522 O   0  0  0  0  0  0  0  0  0  0  0  0
    5.5057    7.1196   21.1155 C   0  0  0  0  0  0  0  0  0  0  0  0
    7.0367   11.0229   21.9948 O   0  0  0  0  0  0  0  0  0  0  0  0
  1  8  4  0
  1 12  4  0
  2  9  1  0
  2 11  4  0
  2 25  4  0
  3 12  4  0
  3 14  1  0
  3 23  4  0
  4 13  4  0
  4 21  4  0
  4 24  1  0
  5  8  4  0
  5 23  4  0
  6 18  2  0
  7 15  4  0
  7 16  1  0
  7 27  4  0
  8 18  1  0
 10 18  1  0
 10 20  1  0
 11 15  4  0
 11 26  1  0
 13 22  4  0
 16 19  1  0
 16 20  2  0
 17 19  4  0
 17 21  4  0
 19 22  4  0
 20 28  1  0
 25 27  4  0
M  END
$$$$

 Created by Python create_sdf_string function

 28 30  0  0  0  0  0  0  0  0999 V2000
   11.4592   11.2893   18.7941 C   0  0  0  0  0  0  0  0  0  0  0  0
    3.4202    7.9009   20.3866 C   0  0  0  0  0  0  0  0  0  0  0  0
   13.5280   10.3522   19.3586 C   0  0  0  0  0  0  0  0  0  0  0  0
    9.6923    5.6468   22.7891 C   0  0  0  0  0  0  0  0  0  0  0  0
   11.7756   10.2554   20.8841 N   0  0  0  0  0  0  0  0  0  0  0  0
    8.9876   11.9370   19.8757 O   0  0  0  0  0  0  0  0  0  0  0  0
    6.0167    8.4478   21.1089 C   0  0  0  0  0  0  0  0  0  0  0  0
   11.0002   10.8890   20.0262 C   0  0  0  0  0  0  0  0  0  0  0  0
    2.1721    7.7393   20.0315 O   0  0  0  0  0  0  0  0  0  0  0  0
    9.1107   10.3880   21.3769 N   0  0  0  0  0  0  0  0  0  0  0  0
    3.9102    9.2008   20.3124 C   0  0  0  0  0  0  0  0  0  0  0  0
   12.7292   10.9960   18.4597 C   0  0  0  0  0  0  0  0  0  0  0  0
    9.3798    6.6793   23.6625 C   0  0  0  0  0  0  0  0  0  0  0  0
   14.7425   10.0739   19.0802 O   0  0  0  0  0  0  0  0  0  0  0  0
    5.1894    9.4673   20.7118 C   0  0  0  0  0  0  0  0  0  0  0  0
    7.3773    8.8224   21.4870 C   0  0  0  0  0  0  0  0  0  0  0  0
    8.4391    6.6439   21.0235 C   0  0  0  0  0  0  0  0  0  0  0  0
    9.6494   11.1353   20.4167 C   0  0  0  0  0  0  0  0  0  0  0  0
    8.1431    7.6829   21.9046 C   0  0  0  0  0  0  0  0  0  0  0  0
    7.7796   10.1314   21.5115 N   0  0  0  0  0  0  0  0  0  0  0  0
    9.2768    5.6183   21.4437 C   0  0  0  0  0  0  0  0  0  0  0  0
    8.6315    7.7322   23.1768 C   0  0  0  0  0  0  0  0  0  0  0  0
   13.0537    9.9821   20.5781 C   0  0  0  0  0  0  0  0  0  0  0  0
   10.3850    4.6575   23.2386 O   0  0  0  0  0  0  0  0  0  0  0  0
    4.2069    6.8450   20.7994 C   0  0  0  0  0  0  0  0  0  0  0  0
    3.0726   10.1043   19.8522 O   0  0  0  0  0  0  0  0  0  0  0  0
    5.5057    7.1196   21.1155 C   0  0  0  0  0  0  0  0  0  0  0  0
    7.0367   11.0229   21.9948 O   0  0  0  0  0  0  0  0  0  0  0  0
  1  8  4  0
  1 12  4  0
  2  9  1  0
  2 11  4  0
  2 25  4  0
  3 12  4  0
  3 14  1  0
  3 23  4  0
  4 13  4  0
  4 21  4  0
  4 24  1  0
  5  8  4  0
  5 23  4  0
  6 18  2  0
  7 15  4  0
  7 16  1  0
  7 27  4  0
  8 18  1  0
 10 18  1  0
 10 20  1  0
 11 15  4  0
 11 26  1  0
 13 22  4  0
 16 19  1  0
 16 20  2  0
 17 19  4  0
 17 21  4  0
 19 22  4  0
 20 28  1  0
 25 27  4  0
M  END
$$$$

 Created by Python create_sdf_string function

 28 30  0  0  0  0  0  0  0  0999 V2000
   11.4592   11.2893   18.7941 C   0  0  0  0  0  0  0  0  0  0  0  0
    3.4202    7.9009   20.3866 C   0  0  0  0  0  0  0  0  0  0  0  0
   13.5280   10.3522   19.3586 C   0  0  0  0  0  0  0  0  0  0  0  0
    9.6923    5.6468   22.7891 C   0  0  0  0  0  0  0  0  0  0  0  0
   11.7756   10.2554   20.8841 N   0  0  0  0  0  0  0  0  0  0  0  0
    8.9876   11.9370   19.8757 O   0  0  0  0  0  0  0  0  0  0  0  0
    6.0167    8.4478   21.1089 C   0  0  0  0  0  0  0  0  0  0  0  0
   11.0002   10.8890   20.0262 C   0  0  0  0  0  0  0  0  0  0  0  0
    2.1721    7.7393   20.0315 O   0  0  0  0  0  0  0  0  0  0  0  0
    9.1107   10.3880   21.3769 N   0  0  0  0  0  0  0  0  0  0  0  0
    3.9102    9.2008   20.3124 C   0  0  0  0  0  0  0  0  0  0  0  0
   12.7292   10.9960   18.4597 C   0  0  0  0  0  0  0  0  0  0  0  0
    9.3798    6.6793   23.6625 C   0  0  0  0  0  0  0  0  0  0  0  0
   14.7425   10.0739   19.0802 O   0  0  0  0  0  0  0  0  0  0  0  0
    5.1894    9.4673   20.7118 C   0  0  0  0  0  0  0  0  0  0  0  0
    7.3773    8.8224   21.4870 C   0  0  0  0  0  0  0  0  0  0  0  0
    8.4391    6.6439   21.0235 C   0  0  0  0  0  0  0  0  0  0  0  0
    9.6494   11.1353   20.4167 C   0  0  0  0  0  0  0  0  0  0  0  0
    8.1431    7.6829   21.9046 C   0  0  0  0  0  0  0  0  0  0  0  0
    7.7796   10.1314   21.5115 N   0  0  0  0  0  0  0  0  0  0  0  0
    9.2768    5.6183   21.4437 C   0  0  0  0  0  0  0  0  0  0  0  0
    8.6315    7.7322   23.1768 C   0  0  0  0  0  0  0  0  0  0  0  0
   13.0537    9.9821   20.5781 C   0  0  0  0  0  0  0  0  0  0  0  0
   10.3850    4.6575   23.2386 O   0  0  0  0  0  0  0  0  0  0  0  0
    4.2069    6.8450   20.7994 C   0  0  0  0  0  0  0  0  0  0  0  0
    3.0726   10.1043   19.8522 O   0  0  0  0  0  0  0  0  0  0  0  0
    5.5057    7.1196   21.1155 C   0  0  0  0  0  0  0  0  0  0  0  0
    7.0367   11.0229   21.9948 O   0  0  0  0  0  0  0  0  0  0  0  0
  1  8  4  0
  1 12  4  0
  2  9  1  0
  2 11  4  0
  2 25  4  0
  3 12  4  0
  3 14  1  0
  3 23  4  0
  4 13  4  0
  4 21  4  0
  4 24  1  0
  5  8  4  0
  5 23  4  0
  6 18  2  0
  7 15  4  0
  7 16  1  0
  7 27  4  0
  8 18  1  0
 10 18  1  0
 10 20  1  0
 11 15  4  0
 11 26  1  0
 13 22  4  0
 16 19  1  0
 16 20  2  0
 17 19  4  0
 17 21  4  0
 19 22  4  0
 20 28  1  0
 25 27  4  0
M  END
$$$$

 Created by Python create_sdf_string function

 28 30  0  0  0  0  0  0  0  0999 V2000
   11.4592   11.2893   18.7941 C   0  0  0  0  0  0  0  0  0  0  0  0
    3.4202    7.9009   20.3866 C   0  0  0  0  0  0  0  0  0  0  0  0
   13.5280   10.3522   19.3586 C   0  0  0  0  0  0  0  0  0  0  0  0
    9.6923    5.6468   22.7891 C   0  0  0  0  0  0  0  0  0  0  0  0
   11.7756   10.2554   20.8841 N   0  0  0  0  0  0  0  0  0  0  0  0
    8.9876   11.9370   19.8757 O   0  0  0  0  0  0  0  0  0  0  0  0
    6.0167    8.4478   21.1089 C   0  0  0  0  0  0  0  0  0  0  0  0
   11.0002   10.8890   20.0262 C   0  0  0  0  0  0  0  0  0  0  0  0
    2.1721    7.7393   20.0315 O   0  0  0  0  0  0  0  0  0  0  0  0
    9.1107   10.3880   21.3769 N   0  0  0  0  0  0  0  0  0  0  0  0
    3.9102    9.2008   20.3124 C   0  0  0  0  0  0  0  0  0  0  0  0
   12.7292   10.9960   18.4597 C   0  0  0  0  0  0  0  0  0  0  0  0
    9.3798    6.6793   23.6625 C   0  0  0  0  0  0  0  0  0  0  0  0
   14.7425   10.0739   19.0802 O   0  0  0  0  0  0  0  0  0  0  0  0
    5.1894    9.4673   20.7118 C   0  0  0  0  0  0  0  0  0  0  0  0
    7.3773    8.8224   21.4870 C   0  0  0  0  0  0  0  0  0  0  0  0
    8.4391    6.6439   21.0235 C   0  0  0  0  0  0  0  0  0  0  0  0
    9.6494   11.1353   20.4167 C   0  0  0  0  0  0  0  0  0  0  0  0
    8.1431    7.6829   21.9046 C   0  0  0  0  0  0  0  0  0  0  0  0
    7.7796   10.1314   21.5115 N   0  0  0  0  0  0  0  0  0  0  0  0
    9.2768    5.6183   21.4437 C   0  0  0  0  0  0  0  0  0  0  0  0
    8.6315    7.7322   23.1768 C   0  0  0  0  0  0  0  0  0  0  0  0
   13.0537    9.9821   20.5781 C   0  0  0  0  0  0  0  0  0  0  0  0
   10.3850    4.6575   23.2386 O   0  0  0  0  0  0  0  0  0  0  0  0
    4.2069    6.8450   20.7994 C   0  0  0  0  0  0  0  0  0  0  0  0
    3.0726   10.1043   19.8522 O   0  0  0  0  0  0  0  0  0  0  0  0
    5.5057    7.1196   21.1155 C   0  0  0  0  0  0  0  0  0  0  0  0
    7.0367   11.0229   21.9948 O   0  0  0  0  0  0  0  0  0  0  0  0
  1  8  4  0
  1 12  4  0
  2  9  1  0
  2 11  4  0
  2 25  4  0
  3 12  4  0
  3 14  1  0
  3 23  4  0
  4 13  4  0
  4 21  4  0
  4 24  1  0
  5  8  4  0
  5 23  4  0
  6 18  2  0
  7 15  4  0
  7 16  1  0
  7 27  4  0
  8 18  1  0
 10 18  1  0
 10 20  1  0
 11 15  4  0
 11 26  1  0
 13 22  4  0
 16 19  1  0
 16 20  2  0
 17 19  4  0
 17 21  4  0
 19 22  4  0
 20 28  1  0
 25 27  4  0
M  END
$$$$

 Created by Python create_sdf_string function

 28 30  0  0  0  0  0  0  0  0999 V2000
   11.4592   11.2893   18.7941 C   0  0  0  0  0  0  0  0  0  0  0  0
    3.4202    7.9009   20.3866 C   0  0  0  0  0  0  0  0  0  0  0  0
   13.5280   10.3522   19.3586 C   0  0  0  0  0  0  0  0  0  0  0  0
    9.6923    5.6468   22.7891 C   0  0  0  0  0  0  0  0  0  0  0  0
   11.7756   10.2554   20.8841 N   0  0  0  0  0  0  0  0  0  0  0  0
    8.9876   11.9370   19.8757 O   0  0  0  0  0  0  0  0  0  0  0  0
    6.0167    8.4478   21.1089 C   0  0  0  0  0  0  0  0  0  0  0  0
   11.0002   10.8890   20.0262 C   0  0  0  0  0  0  0  0  0  0  0  0
    2.1721    7.7393   20.0315 O   0  0  0  0  0  0  0  0  0  0  0  0
    9.1107   10.3880   21.3769 N   0  0  0  0  0  0  0  0  0  0  0  0
    3.9102    9.2008   20.3124 C   0  0  0  0  0  0  0  0  0  0  0  0
   12.7292   10.9960   18.4597 C   0  0  0  0  0  0  0  0  0  0  0  0
    9.3798    6.6793   23.6625 C   0  0  0  0  0  0  0  0  0  0  0  0
   14.7425   10.0739   19.0802 O   0  0  0  0  0  0  0  0  0  0  0  0
    5.1894    9.4673   20.7118 C   0  0  0  0  0  0  0  0  0  0  0  0
    7.3773    8.8224   21.4870 C   0  0  0  0  0  0  0  0  0  0  0  0
    8.4391    6.6439   21.0235 C   0  0  0  0  0  0  0  0  0  0  0  0
    9.6494   11.1353   20.4167 C   0  0  0  0  0  0  0  0  0  0  0  0
    8.1431    7.6829   21.9046 C   0  0  0  0  0  0  0  0  0  0  0  0
    7.7796   10.1314   21.5115 N   0  0  0  0  0  0  0  0  0  0  0  0
    9.2768    5.6183   21.4437 C   0  0  0  0  0  0  0  0  0  0  0  0
    8.6315    7.7322   23.1768 C   0  0  0  0  0  0  0  0  0  0  0  0
   13.0537    9.9821   20.5781 C   0  0  0  0  0  0  0  0  0  0  0  0
   10.3850    4.6575   23.2386 O   0  0  0  0  0  0  0  0  0  0  0  0
    4.2069    6.8450   20.7994 C   0  0  0  0  0  0  0  0  0  0  0  0
    3.0726   10.1043   19.8522 O   0  0  0  0  0  0  0  0  0  0  0  0
    5.5057    7.1196   21.1155 C   0  0  0  0  0  0  0  0  0  0  0  0
    7.0367   11.0229   21.9948 O   0  0  0  0  0  0  0  0  0  0  0  0
  1  8  4  0
  1 12  4  0
  2  9  1  0
  2 11  4  0
  2 25  4  0
  3 12  4  0
  3 14  1  0
  3 23  4  0
  4 13  4  0
  4 21  4  0
  4 24  1  0
  5  8  4  0
  5 23  4  0
  6 18  2  0
  7 15  4  0
  7 16  1  0
  7 27  4  0
  8 18  1  0
 10 18  1  0
 10 20  1  0
 11 15  4  0
 11 26  1  0
 13 22  4  0
 16 19  1  0
 16 20  2  0
 17 19  4  0
 17 21  4  0
 19 22  4  0
 20 28  1  0
 25 27  4  0
M  END
$$$$

 Created by Python create_sdf_string function

 28 30  0  0  0  0  0  0  0  0999 V2000
   11.4592   11.2893   18.7941 C   0  0  0  0  0  0  0  0  0  0  0  0
    3.4202    7.9009   20.3866 C   0  0  0  0  0  0  0  0  0  0  0  0
   13.5280   10.3522   19.3586 C   0  0  0  0  0  0  0  0  0  0  0  0
    9.6923    5.6468   22.7891 C   0  0  0  0  0  0  0  0  0  0  0  0
   11.7756   10.2554   20.8841 N   0  0  0  0  0  0  0  0  0  0  0  0
    8.9876   11.9370   19.8757 O   0  0  0  0  0  0  0  0  0  0  0  0
    6.0167    8.4478   21.1089 C   0  0  0  0  0  0  0  0  0  0  0  0
   11.0002   10.8890   20.0262 C   0  0  0  0  0  0  0  0  0  0  0  0
    2.1721    7.7393   20.0315 O   0  0  0  0  0  0  0  0  0  0  0  0
    9.1107   10.3880   21.3769 N   0  0  0  0  0  0  0  0  0  0  0  0
    3.9102    9.2008   20.3124 C   0  0  0  0  0  0  0  0  0  0  0  0
   12.7292   10.9960   18.4597 C   0  0  0  0  0  0  0  0  0  0  0  0
    9.3798    6.6793   23.6625 C   0  0  0  0  0  0  0  0  0  0  0  0
   14.7425   10.0739   19.0802 O   0  0  0  0  0  0  0  0  0  0  0  0
    5.1894    9.4673   20.7118 C   0  0  0  0  0  0  0  0  0  0  0  0
    7.3773    8.8224   21.4870 C   0  0  0  0  0  0  0  0  0  0  0  0
    8.4391    6.6439   21.0235 C   0  0  0  0  0  0  0  0  0  0  0  0
    9.6494   11.1353   20.4167 C   0  0  0  0  0  0  0  0  0  0  0  0
    8.1431    7.6829   21.9046 C   0  0  0  0  0  0  0  0  0  0  0  0
    7.7796   10.1314   21.5115 N   0  0  0  0  0  0  0  0  0  0  0  0
    9.2768    5.6183   21.4437 C   0  0  0  0  0  0  0  0  0  0  0  0
    8.6315    7.7322   23.1768 C   0  0  0  0  0  0  0  0  0  0  0  0
   13.0537    9.9821   20.5781 C   0  0  0  0  0  0  0  0  0  0  0  0
   10.3850    4.6575   23.2386 O   0  0  0  0  0  0  0  0  0  0  0  0
    4.2069    6.8450   20.7994 C   0  0  0  0  0  0  0  0  0  0  0  0
    3.0726   10.1043   19.8522 O   0  0  0  0  0  0  0  0  0  0  0  0
    5.5057    7.1196   21.1155 C   0  0  0  0  0  0  0  0  0  0  0  0
    7.0367   11.0229   21.9948 O   0  0  0  0  0  0  0  0  0  0  0  0
  1  8  4  0
  1 12  4  0
  2  9  1  0
  2 11  4  0
  2 25  4  0
  3 12  4  0
  3 14  1  0
  3 23  4  0
  4 13  4  0
  4 21  4  0
  4 24  1  0
  5  8  4  0
  5 23  4  0
  6 18  2  0
  7 15  4  0
  7 16  1  0
  7 27  4  0
  8 18  1  0
 10 18  1  0
 10 20  1  0
 11 15  4  0
 11 26  1  0
 13 22  4  0
 16 19  1  0
 16 20  2  0
 17 19  4  0
 17 21  4  0
 19 22  4  0
 20 28  1  0
 25 27  4  0
M  END
$$$$

 Created by Python create_sdf_string function

 28 30  0  0  0  0  0  0  0  0999 V2000
   11.4592   11.2893   18.7941 C   0  0  0  0  0  0  0  0  0  0  0  0
    3.4202    7.9009   20.3866 C   0  0  0  0  0  0  0  0  0  0  0  0
   13.5280   10.3522   19.3586 C   0  0  0  0  0  0  0  0  0  0  0  0
    9.6923    5.6468   22.7891 C   0  0  0  0  0  0  0  0  0  0  0  0
   11.7756   10.2554   20.8841 N   0  0  0  0  0  0  0  0  0  0  0  0
    8.9876   11.9370   19.8757 O   0  0  0  0  0  0  0  0  0  0  0  0
    6.0167    8.4478   21.1089 C   0  0  0  0  0  0  0  0  0  0  0  0
   11.0002   10.8890   20.0262 C   0  0  0  0  0  0  0  0  0  0  0  0
    2.1721    7.7393   20.0315 O   0  0  0  0  0  0  0  0  0  0  0  0
    9.1107   10.3880   21.3769 N   0  0  0  0  0  0  0  0  0  0  0  0
    3.9102    9.2008   20.3124 C   0  0  0  0  0  0  0  0  0  0  0  0
   12.7292   10.9960   18.4597 C   0  0  0  0  0  0  0  0  0  0  0  0
    9.3798    6.6793   23.6625 C   0  0  0  0  0  0  0  0  0  0  0  0
   14.7425   10.0739   19.0802 O   0  0  0  0  0  0  0  0  0  0  0  0
    5.1894    9.4673   20.7118 C   0  0  0  0  0  0  0  0  0  0  0  0
    7.3773    8.8224   21.4870 C   0  0  0  0  0  0  0  0  0  0  0  0
    8.4391    6.6439   21.0235 C   0  0  0  0  0  0  0  0  0  0  0  0
    9.6494   11.1353   20.4167 C   0  0  0  0  0  0  0  0  0  0  0  0
    8.1431    7.6829   21.9046 C   0  0  0  0  0  0  0  0  0  0  0  0
    7.7796   10.1314   21.5115 N   0  0  0  0  0  0  0  0  0  0  0  0
    9.2768    5.6183   21.4437 C   0  0  0  0  0  0  0  0  0  0  0  0
    8.6315    7.7322   23.1768 C   0  0  0  0  0  0  0  0  0  0  0  0
   13.0537    9.9821   20.5781 C   0  0  0  0  0  0  0  0  0  0  0  0
   10.3850    4.6575   23.2386 O   0  0  0  0  0  0  0  0  0  0  0  0
    4.2069    6.8450   20.7994 C   0  0  0  0  0  0  0  0  0  0  0  0
    3.0726   10.1043   19.8522 O   0  0  0  0  0  0  0  0  0  0  0  0
    5.5057    7.1196   21.1155 C   0  0  0  0  0  0  0  0  0  0  0  0
    7.0367   11.0229   21.9948 O   0  0  0  0  0  0  0  0  0  0  0  0
  1  8  4  0
  1 12  4  0
  2  9  1  0
  2 11  4  0
  2 25  4  0
  3 12  4  0
  3 14  1  0
  3 23  4  0
  4 13  4  0
  4 21  4  0
  4 24  1  0
  5  8  4  0
  5 23  4  0
  6 18  2  0
  7 15  4  0
  7 16  1  0
  7 27  4  0
  8 18  1  0
 10 18  1  0
 10 20  1  0
 11 15  4  0
 11 26  1  0
 13 22  4  0
 16 19  1  0
 16 20  2  0
 17 19  4  0
 17 21  4  0
 19 22  4  0
 20 28  1  0
 25 27  4  0
M  END
$$$$

 Created by Python create_sdf_string function

 28 30  0  0  0  0  0  0  0  0999 V2000
   11.4592   11.2893   18.7941 C   0  0  0  0  0  0  0  0  0  0  0  0
    3.4202    7.9009   20.3866 C   0  0  0  0  0  0  0  0  0  0  0  0
   13.5280   10.3522   19.3586 C   0  0  0  0  0  0  0  0  0  0  0  0
    9.6923    5.6468   22.7891 C   0  0  0  0  0  0  0  0  0  0  0  0
   11.7756   10.2554   20.8841 N   0  0  0  0  0  0  0  0  0  0  0  0
    8.9876   11.9370   19.8757 O   0  0  0  0  0  0  0  0  0  0  0  0
    6.0167    8.4478   21.1089 C   0  0  0  0  0  0  0  0  0  0  0  0
   11.0002   10.8890   20.0262 C   0  0  0  0  0  0  0  0  0  0  0  0
    2.1721    7.7393   20.0315 O   0  0  0  0  0  0  0  0  0  0  0  0
    9.1107   10.3880   21.3769 N   0  0  0  0  0  0  0  0  0  0  0  0
    3.9102    9.2008   20.3124 C   0  0  0  0  0  0  0  0  0  0  0  0
   12.7292   10.9960   18.4597 C   0  0  0  0  0  0  0  0  0  0  0  0
    9.3798    6.6793   23.6625 C   0  0  0  0  0  0  0  0  0  0  0  0
   14.7425   10.0739   19.0802 O   0  0  0  0  0  0  0  0  0  0  0  0
    5.1894    9.4673   20.7118 C   0  0  0  0  0  0  0  0  0  0  0  0
    7.3773    8.8224   21.4870 C   0  0  0  0  0  0  0  0  0  0  0  0
    8.4391    6.6439   21.0235 C   0  0  0  0  0  0  0  0  0  0  0  0
    9.6494   11.1353   20.4167 C   0  0  0  0  0  0  0  0  0  0  0  0
    8.1431    7.6829   21.9046 C   0  0  0  0  0  0  0  0  0  0  0  0
    7.7796   10.1314   21.5115 N   0  0  0  0  0  0  0  0  0  0  0  0
    9.2768    5.6183   21.4437 C   0  0  0  0  0  0  0  0  0  0  0  0
    8.6315    7.7322   23.1768 C   0  0  0  0  0  0  0  0  0  0  0  0
   13.0537    9.9821   20.5781 C   0  0  0  0  0  0  0  0  0  0  0  0
   10.3850    4.6575   23.2386 O   0  0  0  0  0  0  0  0  0  0  0  0
    4.2069    6.8450   20.7994 C   0  0  0  0  0  0  0  0  0  0  0  0
    3.0726   10.1043   19.8522 O   0  0  0  0  0  0  0  0  0  0  0  0
    5.5057    7.1196   21.1155 C   0  0  0  0  0  0  0  0  0  0  0  0
    7.0367   11.0229   21.9948 O   0  0  0  0  0  0  0  0  0  0  0  0
  1  8  4  0
  1 12  4  0
  2  9  1  0
  2 11  4  0
  2 25  4  0
  3 12  4  0
  3 14  1  0
  3 23  4  0
  4 13  4  0
  4 21  4  0
  4 24  1  0
  5  8  4  0
  5 23  4  0
  6 18  2  0
  7 15  4  0
  7 16  1  0
  7 27  4  0
  8 18  1  0
 10 18  1  0
 10 20  1  0
 11 15  4  0
 11 26  1  0
 13 22  4  0
 16 19  1  0
 16 20  2  0
 17 19  4  0
 17 21  4  0
 19 22  4  0
 20 28  1  0
 25 27  4  0
M  END
$$$$

 Created by Python create_sdf_string function

 28 30  0  0  0  0  0  0  0  0999 V2000
   11.4592   11.2893   18.7941 C   0  0  0  0  0  0  0  0  0  0  0  0
    3.4202    7.9009   20.3866 C   0  0  0  0  0  0  0  0  0  0  0  0
   13.5280   10.3522   19.3586 C   0  0  0  0  0  0  0  0  0  0  0  0
    9.6923    5.6468   22.7891 C   0  0  0  0  0  0  0  0  0  0  0  0
   11.7756   10.2554   20.8841 N   0  0  0  0  0  0  0  0  0  0  0  0
    8.9876   11.9370   19.8757 O   0  0  0  0  0  0  0  0  0  0  0  0
    6.0167    8.4478   21.1089 C   0  0  0  0  0  0  0  0  0  0  0  0
   11.0002   10.8890   20.0262 C   0  0  0  0  0  0  0  0  0  0  0  0
    2.1721    7.7393   20.0315 O   0  0  0  0  0  0  0  0  0  0  0  0
    9.1107   10.3880   21.3769 N   0  0  0  0  0  0  0  0  0  0  0  0
    3.9102    9.2008   20.3124 C   0  0  0  0  0  0  0  0  0  0  0  0
   12.7292   10.9960   18.4597 C   0  0  0  0  0  0  0  0  0  0  0  0
    9.3798    6.6793   23.6625 C   0  0  0  0  0  0  0  0  0  0  0  0
   14.7425   10.0739   19.0802 O   0  0  0  0  0  0  0  0  0  0  0  0
    5.1894    9.4673   20.7118 C   0  0  0  0  0  0  0  0  0  0  0  0
    7.3773    8.8224   21.4870 C   0  0  0  0  0  0  0  0  0  0  0  0
    8.4391    6.6439   21.0235 C   0  0  0  0  0  0  0  0  0  0  0  0
    9.6494   11.1353   20.4167 C   0  0  0  0  0  0  0  0  0  0  0  0
    8.1431    7.6829   21.9046 C   0  0  0  0  0  0  0  0  0  0  0  0
    7.7796   10.1314   21.5115 N   0  0  0  0  0  0  0  0  0  0  0  0
    9.2768    5.6183   21.4437 C   0  0  0  0  0  0  0  0  0  0  0  0
    8.6315    7.7322   23.1768 C   0  0  0  0  0  0  0  0  0  0  0  0
   13.0537    9.9821   20.5781 C   0  0  0  0  0  0  0  0  0  0  0  0
   10.3850    4.6575   23.2386 O   0  0  0  0  0  0  0  0  0  0  0  0
    4.2069    6.8450   20.7994 C   0  0  0  0  0  0  0  0  0  0  0  0
    3.0726   10.1043   19.8522 O   0  0  0  0  0  0  0  0  0  0  0  0
    5.5057    7.1196   21.1155 C   0  0  0  0  0  0  0  0  0  0  0  0
    7.0367   11.0229   21.9948 O   0  0  0  0  0  0  0  0  0  0  0  0
  1  8  4  0
  1 12  4  0
  2  9  1  0
  2 11  4  0
  2 25  4  0
  3 12  4  0
  3 14  1  0
  3 23  4  0
  4 13  4  0
  4 21  4  0
  4 24  1  0
  5  8  4  0
  5 23  4  0
  6 18  2  0
  7 15  4  0
  7 16  1  0
  7 27  4  0
  8 18  1  0
 10 18  1  0
 10 20  1  0
 11 15  4  0
 11 26  1  0
 13 22  4  0
 16 19  1  0
 16 20  2  0
 17 19  4  0
 17 21  4  0
 19 22  4  0
 20 28  1  0
 25 27  4  0
M  END
$$$$

 Created by Python create_sdf_string function

 28 30  0  0  0  0  0  0  0  0999 V2000
   11.4592   11.2893   18.7941 C   0  0  0  0  0  0  0  0  0  0  0  0
    3.4202    7.9009   20.3866 C   0  0  0  0  0  0  0  0  0  0  0  0
   13.5280   10.3522   19.3586 C   0  0  0  0  0  0  0  0  0  0  0  0
    9.6923    5.6468   22.7891 C   0  0  0  0  0  0  0  0  0  0  0  0
   11.7756   10.2554   20.8841 N   0  0  0  0  0  0  0  0  0  0  0  0
    8.9876   11.9370   19.8757 O   0  0  0  0  0  0  0  0  0  0  0  0
    6.0167    8.4478   21.1089 C   0  0  0  0  0  0  0  0  0  0  0  0
   11.0002   10.8890   20.0262 C   0  0  0  0  0  0  0  0  0  0  0  0
    2.1721    7.7393   20.0315 O   0  0  0  0  0  0  0  0  0  0  0  0
    9.1107   10.3880   21.3769 N   0  0  0  0  0  0  0  0  0  0  0  0
    3.9102    9.2008   20.3124 C   0  0  0  0  0  0  0  0  0  0  0  0
   12.7292   10.9960   18.4597 C   0  0  0  0  0  0  0  0  0  0  0  0
    9.3798    6.6793   23.6625 C   0  0  0  0  0  0  0  0  0  0  0  0
   14.7425   10.0739   19.0802 O   0  0  0  0  0  0  0  0  0  0  0  0
    5.1894    9.4673   20.7118 C   0  0  0  0  0  0  0  0  0  0  0  0
    7.3773    8.8224   21.4870 C   0  0  0  0  0  0  0  0  0  0  0  0
    8.4391    6.6439   21.0235 C   0  0  0  0  0  0  0  0  0  0  0  0
    9.6494   11.1353   20.4167 C   0  0  0  0  0  0  0  0  0  0  0  0
    8.1431    7.6829   21.9046 C   0  0  0  0  0  0  0  0  0  0  0  0
    7.7796   10.1314   21.5115 N   0  0  0  0  0  0  0  0  0  0  0  0
    9.2768    5.6183   21.4437 C   0  0  0  0  0  0  0  0  0  0  0  0
    8.6315    7.7322   23.1768 C   0  0  0  0  0  0  0  0  0  0  0  0
   13.0537    9.9821   20.5781 C   0  0  0  0  0  0  0  0  0  0  0  0
   10.3850    4.6575   23.2386 O   0  0  0  0  0  0  0  0  0  0  0  0
    4.2069    6.8450   20.7994 C   0  0  0  0  0  0  0  0  0  0  0  0
    3.0726   10.1043   19.8522 O   0  0  0  0  0  0  0  0  0  0  0  0
    5.5057    7.1196   21.1155 C   0  0  0  0  0  0  0  0  0  0  0  0
    7.0367   11.0229   21.9948 O   0  0  0  0  0  0  0  0  0  0  0  0
  1  8  4  0
  1 12  4  0
  2  9  1  0
  2 11  4  0
  2 25  4  0
  3 12  4  0
  3 14  1  0
  3 23  4  0
  4 13  4  0
  4 21  4  0
  4 24  1  0
  5  8  4  0
  5 23  4  0
  6 18  2  0
  7 15  4  0
  7 16  1  0
  7 27  4  0
  8 18  1  0
 10 18  1  0
 10 20  1  0
 11 15  4  0
 11 26  1  0
 13 22  4  0
 16 19  1  0
 16 20  2  0
 17 19  4  0
 17 21  4  0
 19 22  4  0
 20 28  1  0
 25 27  4  0
M  END
$$$$

 Created by Python create_sdf_string function

 28 30  0  0  0  0  0  0  0  0999 V2000
   11.4592   11.2893   18.7941 C   0  0  0  0  0  0  0  0  0  0  0  0
    3.4202    7.9009   20.3866 C   0  0  0  0  0  0  0  0  0  0  0  0
   13.5280   10.3522   19.3586 C   0  0  0  0  0  0  0  0  0  0  0  0
    9.6923    5.6468   22.7891 C   0  0  0  0  0  0  0  0  0  0  0  0
   11.7756   10.2554   20.8841 N   0  0  0  0  0  0  0  0  0  0  0  0
    8.9876   11.9370   19.8757 O   0  0  0  0  0  0  0  0  0  0  0  0
    6.0167    8.4478   21.1089 C   0  0  0  0  0  0  0  0  0  0  0  0
   11.0002   10.8890   20.0262 C   0  0  0  0  0  0  0  0  0  0  0  0
    2.1721    7.7393   20.0315 O   0  0  0  0  0  0  0  0  0  0  0  0
    9.1107   10.3880   21.3769 N   0  0  0  0  0  0  0  0  0  0  0  0
    3.9102    9.2008   20.3124 C   0  0  0  0  0  0  0  0  0  0  0  0
   12.7292   10.9960   18.4597 C   0  0  0  0  0  0  0  0  0  0  0  0
    9.3798    6.6793   23.6625 C   0  0  0  0  0  0  0  0  0  0  0  0
   14.7425   10.0739   19.0802 O   0  0  0  0  0  0  0  0  0  0  0  0
    5.1894    9.4673   20.7118 C   0  0  0  0  0  0  0  0  0  0  0  0
    7.3773    8.8224   21.4870 C   0  0  0  0  0  0  0  0  0  0  0  0
    8.4391    6.6439   21.0235 C   0  0  0  0  0  0  0  0  0  0  0  0
    9.6494   11.1353   20.4167 C   0  0  0  0  0  0  0  0  0  0  0  0
    8.1431    7.6829   21.9046 C   0  0  0  0  0  0  0  0  0  0  0  0
    7.7796   10.1314   21.5115 N   0  0  0  0  0  0  0  0  0  0  0  0
    9.2768    5.6183   21.4437 C   0  0  0  0  0  0  0  0  0  0  0  0
    8.6315    7.7322   23.1768 C   0  0  0  0  0  0  0  0  0  0  0  0
   13.0537    9.9821   20.5781 C   0  0  0  0  0  0  0  0  0  0  0  0
   10.3850    4.6575   23.2386 O   0  0  0  0  0  0  0  0  0  0  0  0
    4.2069    6.8450   20.7994 C   0  0  0  0  0  0  0  0  0  0  0  0
    3.0726   10.1043   19.8522 O   0  0  0  0  0  0  0  0  0  0  0  0
    5.5057    7.1196   21.1155 C   0  0  0  0  0  0  0  0  0  0  0  0
    7.0367   11.0229   21.9948 O   0  0  0  0  0  0  0  0  0  0  0  0
  1  8  4  0
  1 12  4  0
  2  9  1  0
  2 11  4  0
  2 25  4  0
  3 12  4  0
  3 14  1  0
  3 23  4  0
  4 13  4  0
  4 21  4  0
  4 24  1  0
  5  8  4  0
  5 23  4  0
  6 18  2  0
  7 15  4  0
  7 16  1  0
  7 27  4  0
  8 18  1  0
 10 18  1  0
 10 20  1  0
 11 15  4  0
 11 26  1  0
 13 22  4  0
 16 19  1  0
 16 20  2  0
 17 19  4  0
 17 21  4  0
 19 22  4  0
 20 28  1  0
 25 27  4  0
M  END
$$$$

 Created by Python create_sdf_string function

 28 30  0  0  0  0  0  0  0  0999 V2000
   11.4592   11.2893   18.7941 C   0  0  0  0  0  0  0  0  0  0  0  0
    3.4202    7.9009   20.3866 C   0  0  0  0  0  0  0  0  0  0  0  0
   13.5280   10.3522   19.3586 C   0  0  0  0  0  0  0  0  0  0  0  0
    9.6923    5.6468   22.7891 C   0  0  0  0  0  0  0  0  0  0  0  0
   11.7756   10.2554   20.8841 N   0  0  0  0  0  0  0  0  0  0  0  0
    8.9876   11.9370   19.8757 O   0  0  0  0  0  0  0  0  0  0  0  0
    6.0167    8.4478   21.1089 C   0  0  0  0  0  0  0  0  0  0  0  0
   11.0002   10.8890   20.0262 C   0  0  0  0  0  0  0  0  0  0  0  0
    2.1721    7.7393   20.0315 O   0  0  0  0  0  0  0  0  0  0  0  0
    9.1107   10.3880   21.3769 N   0  0  0  0  0  0  0  0  0  0  0  0
    3.9102    9.2008   20.3124 C   0  0  0  0  0  0  0  0  0  0  0  0
   12.7292   10.9960   18.4597 C   0  0  0  0  0  0  0  0  0  0  0  0
    9.3798    6.6793   23.6625 C   0  0  0  0  0  0  0  0  0  0  0  0
   14.7425   10.0739   19.0802 O   0  0  0  0  0  0  0  0  0  0  0  0
    5.1894    9.4673   20.7118 C   0  0  0  0  0  0  0  0  0  0  0  0
    7.3773    8.8224   21.4870 C   0  0  0  0  0  0  0  0  0  0  0  0
    8.4391    6.6439   21.0235 C   0  0  0  0  0  0  0  0  0  0  0  0
    9.6494   11.1353   20.4167 C   0  0  0  0  0  0  0  0  0  0  0  0
    8.1431    7.6829   21.9046 C   0  0  0  0  0  0  0  0  0  0  0  0
    7.7796   10.1314   21.5115 N   0  0  0  0  0  0  0  0  0  0  0  0
    9.2768    5.6183   21.4437 C   0  0  0  0  0  0  0  0  0  0  0  0
    8.6315    7.7322   23.1768 C   0  0  0  0  0  0  0  0  0  0  0  0
   13.0537    9.9821   20.5781 C   0  0  0  0  0  0  0  0  0  0  0  0
   10.3850    4.6575   23.2386 O   0  0  0  0  0  0  0  0  0  0  0  0
    4.2069    6.8450   20.7994 C   0  0  0  0  0  0  0  0  0  0  0  0
    3.0726   10.1043   19.8522 O   0  0  0  0  0  0  0  0  0  0  0  0
    5.5057    7.1196   21.1155 C   0  0  0  0  0  0  0  0  0  0  0  0
    7.0367   11.0229   21.9948 O   0  0  0  0  0  0  0  0  0  0  0  0
  1  8  4  0
  1 12  4  0
  2  9  1  0
  2 11  4  0
  2 25  4  0
  3 12  4  0
  3 14  1  0
  3 23  4  0
  4 13  4  0
  4 21  4  0
  4 24  1  0
  5  8  4  0
  5 23  4  0
  6 18  2  0
  7 15  4  0
  7 16  1  0
  7 27  4  0
  8 18  1  0
 10 18  1  0
 10 20  1  0
 11 15  4  0
 11 26  1  0
 13 22  4  0
 16 19  1  0
 16 20  2  0
 17 19  4  0
 17 21  4  0
 19 22  4  0
 20 28  1  0
 25 27  4  0
M  END
$$$$

 Created by Python create_sdf_string function

 28 30  0  0  0  0  0  0  0  0999 V2000
   11.4592   11.2893   18.7941 C   0  0  0  0  0  0  0  0  0  0  0  0
    3.4202    7.9009   20.3866 C   0  0  0  0  0  0  0  0  0  0  0  0
   13.5280   10.3522   19.3586 C   0  0  0  0  0  0  0  0  0  0  0  0
    9.6923    5.6468   22.7891 C   0  0  0  0  0  0  0  0  0  0  0  0
   11.7756   10.2554   20.8841 N   0  0  0  0  0  0  0  0  0  0  0  0
    8.9876   11.9370   19.8757 O   0  0  0  0  0  0  0  0  0  0  0  0
    6.0167    8.4478   21.1089 C   0  0  0  0  0  0  0  0  0  0  0  0
   11.0002   10.8890   20.0262 C   0  0  0  0  0  0  0  0  0  0  0  0
    2.1721    7.7393   20.0315 O   0  0  0  0  0  0  0  0  0  0  0  0
    9.1107   10.3880   21.3769 N   0  0  0  0  0  0  0  0  0  0  0  0
    3.9102    9.2008   20.3124 C   0  0  0  0  0  0  0  0  0  0  0  0
   12.7292   10.9960   18.4597 C   0  0  0  0  0  0  0  0  0  0  0  0
    9.3798    6.6793   23.6625 C   0  0  0  0  0  0  0  0  0  0  0  0
   14.7425   10.0739   19.0802 O   0  0  0  0  0  0  0  0  0  0  0  0
    5.1894    9.4673   20.7118 C   0  0  0  0  0  0  0  0  0  0  0  0
    7.3773    8.8224   21.4870 C   0  0  0  0  0  0  0  0  0  0  0  0
    8.4391    6.6439   21.0235 C   0  0  0  0  0  0  0  0  0  0  0  0
    9.6494   11.1353   20.4167 C   0  0  0  0  0  0  0  0  0  0  0  0
    8.1431    7.6829   21.9046 C   0  0  0  0  0  0  0  0  0  0  0  0
    7.7796   10.1314   21.5115 N   0  0  0  0  0  0  0  0  0  0  0  0
    9.2768    5.6183   21.4437 C   0  0  0  0  0  0  0  0  0  0  0  0
    8.6315    7.7322   23.1768 C   0  0  0  0  0  0  0  0  0  0  0  0
   13.0537    9.9821   20.5781 C   0  0  0  0  0  0  0  0  0  0  0  0
   10.3850    4.6575   23.2386 O   0  0  0  0  0  0  0  0  0  0  0  0
    4.2069    6.8450   20.7994 C   0  0  0  0  0  0  0  0  0  0  0  0
    3.0726   10.1043   19.8522 O   0  0  0  0  0  0  0  0  0  0  0  0
    5.5057    7.1196   21.1155 C   0  0  0  0  0  0  0  0  0  0  0  0
    7.0367   11.0229   21.9948 O   0  0  0  0  0  0  0  0  0  0  0  0
  1  8  4  0
  1 12  4  0
  2  9  1  0
  2 11  4  0
  2 25  4  0
  3 12  4  0
  3 14  1  0
  3 23  4  0
  4 13  4  0
  4 21  4  0
  4 24  1  0
  5  8  4  0
  5 23  4  0
  6 18  2  0
  7 15  4  0
  7 16  1  0
  7 27  4  0
  8 18  1  0
 10 18  1  0
 10 20  1  0
 11 15  4  0
 11 26  1  0
 13 22  4  0
 16 19  1  0
 16 20  2  0
 17 19  4  0
 17 21  4  0
 19 22  4  0
 20 28  1  0
 25 27  4  0
M  END
$$$$

 Created by Python create_sdf_string function

 28 30  0  0  0  0  0  0  0  0999 V2000
   11.4592   11.2893   18.7941 C   0  0  0  0  0  0  0  0  0  0  0  0
    3.4202    7.9009   20.3866 C   0  0  0  0  0  0  0  0  0  0  0  0
   13.5280   10.3522   19.3586 C   0  0  0  0  0  0  0  0  0  0  0  0
    9.6923    5.6468   22.7891 C   0  0  0  0  0  0  0  0  0  0  0  0
   11.7756   10.2554   20.8841 N   0  0  0  0  0  0  0  0  0  0  0  0
    8.9876   11.9370   19.8757 O   0  0  0  0  0  0  0  0  0  0  0  0
    6.0167    8.4478   21.1089 C   0  0  0  0  0  0  0  0  0  0  0  0
   11.0002   10.8890   20.0262 C   0  0  0  0  0  0  0  0  0  0  0  0
    2.1721    7.7393   20.0315 O   0  0  0  0  0  0  0  0  0  0  0  0
    9.1107   10.3880   21.3769 N   0  0  0  0  0  0  0  0  0  0  0  0
    3.9102    9.2008   20.3124 C   0  0  0  0  0  0  0  0  0  0  0  0
   12.7292   10.9960   18.4597 C   0  0  0  0  0  0  0  0  0  0  0  0
    9.3798    6.6793   23.6625 C   0  0  0  0  0  0  0  0  0  0  0  0
   14.7425   10.0739   19.0802 O   0  0  0  0  0  0  0  0  0  0  0  0
    5.1894    9.4673   20.7118 C   0  0  0  0  0  0  0  0  0  0  0  0
    7.3773    8.8224   21.4870 C   0  0  0  0  0  0  0  0  0  0  0  0
    8.4391    6.6439   21.0235 C   0  0  0  0  0  0  0  0  0  0  0  0
    9.6494   11.1353   20.4167 C   0  0  0  0  0  0  0  0  0  0  0  0
    8.1431    7.6829   21.9046 C   0  0  0  0  0  0  0  0  0  0  0  0
    7.7796   10.1314   21.5115 N   0  0  0  0  0  0  0  0  0  0  0  0
    9.2768    5.6183   21.4437 C   0  0  0  0  0  0  0  0  0  0  0  0
    8.6315    7.7322   23.1768 C   0  0  0  0  0  0  0  0  0  0  0  0
   13.0537    9.9821   20.5781 C   0  0  0  0  0  0  0  0  0  0  0  0
   10.3850    4.6575   23.2386 O   0  0  0  0  0  0  0  0  0  0  0  0
    4.2069    6.8450   20.7994 C   0  0  0  0  0  0  0  0  0  0  0  0
    3.0726   10.1043   19.8522 O   0  0  0  0  0  0  0  0  0  0  0  0
    5.5057    7.1196   21.1155 C   0  0  0  0  0  0  0  0  0  0  0  0
    7.0367   11.0229   21.9948 O   0  0  0  0  0  0  0  0  0  0  0  0
  1  8  4  0
  1 12  4  0
  2  9  1  0
  2 11  4  0
  2 25  4  0
  3 12  4  0
  3 14  1  0
  3 23  4  0
  4 13  4  0
  4 21  4  0
  4 24  1  0
  5  8  4  0
  5 23  4  0
  6 18  2  0
  7 15  4  0
  7 16  1  0
  7 27  4  0
  8 18  1  0
 10 18  1  0
 10 20  1  0
 11 15  4  0
 11 26  1  0
 13 22  4  0
 16 19  1  0
 16 20  2  0
 17 19  4  0
 17 21  4  0
 19 22  4  0
 20 28  1  0
 25 27  4  0
M  END
$$$$

 Created by Python create_sdf_string function

 28 30  0  0  0  0  0  0  0  0999 V2000
   11.4592   11.2893   18.7941 C   0  0  0  0  0  0  0  0  0  0  0  0
    3.4202    7.9009   20.3866 C   0  0  0  0  0  0  0  0  0  0  0  0
   13.5280   10.3522   19.3586 C   0  0  0  0  0  0  0  0  0  0  0  0
    9.6923    5.6468   22.7891 C   0  0  0  0  0  0  0  0  0  0  0  0
   11.7756   10.2554   20.8841 N   0  0  0  0  0  0  0  0  0  0  0  0
    8.9876   11.9370   19.8757 O   0  0  0  0  0  0  0  0  0  0  0  0
    6.0167    8.4478   21.1089 C   0  0  0  0  0  0  0  0  0  0  0  0
   11.0002   10.8890   20.0262 C   0  0  0  0  0  0  0  0  0  0  0  0
    2.1721    7.7393   20.0315 O   0  0  0  0  0  0  0  0  0  0  0  0
    9.1107   10.3880   21.3769 N   0  0  0  0  0  0  0  0  0  0  0  0
    3.9102    9.2008   20.3124 C   0  0  0  0  0  0  0  0  0  0  0  0
   12.7292   10.9960   18.4597 C   0  0  0  0  0  0  0  0  0  0  0  0
    9.3798    6.6793   23.6625 C   0  0  0  0  0  0  0  0  0  0  0  0
   14.7425   10.0739   19.0802 O   0  0  0  0  0  0  0  0  0  0  0  0
    5.1894    9.4673   20.7118 C   0  0  0  0  0  0  0  0  0  0  0  0
    7.3773    8.8224   21.4870 C   0  0  0  0  0  0  0  0  0  0  0  0
    8.4391    6.6439   21.0235 C   0  0  0  0  0  0  0  0  0  0  0  0
    9.6494   11.1353   20.4167 C   0  0  0  0  0  0  0  0  0  0  0  0
    8.1431    7.6829   21.9046 C   0  0  0  0  0  0  0  0  0  0  0  0
    7.7796   10.1314   21.5115 N   0  0  0  0  0  0  0  0  0  0  0  0
    9.2768    5.6183   21.4437 C   0  0  0  0  0  0  0  0  0  0  0  0
    8.6315    7.7322   23.1768 C   0  0  0  0  0  0  0  0  0  0  0  0
   13.0537    9.9821   20.5781 C   0  0  0  0  0  0  0  0  0  0  0  0
   10.3850    4.6575   23.2386 O   0  0  0  0  0  0  0  0  0  0  0  0
    4.2069    6.8450   20.7994 C   0  0  0  0  0  0  0  0  0  0  0  0
    3.0726   10.1043   19.8522 O   0  0  0  0  0  0  0  0  0  0  0  0
    5.5057    7.1196   21.1155 C   0  0  0  0  0  0  0  0  0  0  0  0
    7.0367   11.0229   21.9948 O   0  0  0  0  0  0  0  0  0  0  0  0
  1  8  4  0
  1 12  4  0
  2  9  1  0
  2 11  4  0
  2 25  4  0
  3 12  4  0
  3 14  1  0
  3 23  4  0
  4 13  4  0
  4 21  4  0
  4 24  1  0
  5  8  4  0
  5 23  4  0
  6 18  2  0
  7 15  4  0
  7 16  1  0
  7 27  4  0
  8 18  1  0
 10 18  1  0
 10 20  1  0
 11 15  4  0
 11 26  1  0
 13 22  4  0
 16 19  1  0
 16 20  2  0
 17 19  4  0
 17 21  4  0
 19 22  4  0
 20 28  1  0
 25 27  4  0
M  END
$$$$

 Created by Python create_sdf_string function

 28 30  0  0  0  0  0  0  0  0999 V2000
   11.4592   11.2893   18.7941 C   0  0  0  0  0  0  0  0  0  0  0  0
    3.4202    7.9009   20.3866 C   0  0  0  0  0  0  0  0  0  0  0  0
   13.5280   10.3522   19.3586 C   0  0  0  0  0  0  0  0  0  0  0  0
    9.6923    5.6468   22.7891 C   0  0  0  0  0  0  0  0  0  0  0  0
   11.7756   10.2554   20.8841 N   0  0  0  0  0  0  0  0  0  0  0  0
    8.9876   11.9370   19.8757 O   0  0  0  0  0  0  0  0  0  0  0  0
    6.0167    8.4478   21.1089 C   0  0  0  0  0  0  0  0  0  0  0  0
   11.0002   10.8890   20.0262 C   0  0  0  0  0  0  0  0  0  0  0  0
    2.1721    7.7393   20.0315 O   0  0  0  0  0  0  0  0  0  0  0  0
    9.1107   10.3880   21.3769 N   0  0  0  0  0  0  0  0  0  0  0  0
    3.9102    9.2008   20.3124 C   0  0  0  0  0  0  0  0  0  0  0  0
   12.7292   10.9960   18.4597 C   0  0  0  0  0  0  0  0  0  0  0  0
    9.3798    6.6793   23.6625 C   0  0  0  0  0  0  0  0  0  0  0  0
   14.7425   10.0739   19.0802 O   0  0  0  0  0  0  0  0  0  0  0  0
    5.1894    9.4673   20.7118 C   0  0  0  0  0  0  0  0  0  0  0  0
    7.3773    8.8224   21.4870 C   0  0  0  0  0  0  0  0  0  0  0  0
    8.4391    6.6439   21.0235 C   0  0  0  0  0  0  0  0  0  0  0  0
    9.6494   11.1353   20.4167 C   0  0  0  0  0  0  0  0  0  0  0  0
    8.1431    7.6829   21.9046 C   0  0  0  0  0  0  0  0  0  0  0  0
    7.7796   10.1314   21.5115 N   0  0  0  0  0  0  0  0  0  0  0  0
    9.2768    5.6183   21.4437 C   0  0  0  0  0  0  0  0  0  0  0  0
    8.6315    7.7322   23.1768 C   0  0  0  0  0  0  0  0  0  0  0  0
   13.0537    9.9821   20.5781 C   0  0  0  0  0  0  0  0  0  0  0  0
   10.3850    4.6575   23.2386 O   0  0  0  0  0  0  0  0  0  0  0  0
    4.2069    6.8450   20.7994 C   0  0  0  0  0  0  0  0  0  0  0  0
    3.0726   10.1043   19.8522 O   0  0  0  0  0  0  0  0  0  0  0  0
    5.5057    7.1196   21.1155 C   0  0  0  0  0  0  0  0  0  0  0  0
    7.0367   11.0229   21.9948 O   0  0  0  0  0  0  0  0  0  0  0  0
  1  8  4  0
  1 12  4  0
  2  9  1  0
  2 11  4  0
  2 25  4  0
  3 12  4  0
  3 14  1  0
  3 23  4  0
  4 13  4  0
  4 21  4  0
  4 24  1  0
  5  8  4  0
  5 23  4  0
  6 18  2  0
  7 15  4  0
  7 16  1  0
  7 27  4  0
  8 18  1  0
 10 18  1  0
 10 20  1  0
 11 15  4  0
 11 26  1  0
 13 22  4  0
 16 19  1  0
 16 20  2  0
 17 19  4  0
 17 21  4  0
 19 22  4  0
 20 28  1  0
 25 27  4  0
M  END
$$$$

 Created by Python create_sdf_string function

 28 30  0  0  0  0  0  0  0  0999 V2000
   11.4592   11.2893   18.7941 C   0  0  0  0  0  0  0  0  0  0  0  0
    3.4202    7.9009   20.3866 C   0  0  0  0  0  0  0  0  0  0  0  0
   13.5280   10.3522   19.3586 C   0  0  0  0  0  0  0  0  0  0  0  0
    9.6923    5.6468   22.7891 C   0  0  0  0  0  0  0  0  0  0  0  0
   11.7756   10.2554   20.8841 N   0  0  0  0  0  0  0  0  0  0  0  0
    8.9876   11.9370   19.8757 O   0  0  0  0  0  0  0  0  0  0  0  0
    6.0167    8.4478   21.1089 C   0  0  0  0  0  0  0  0  0  0  0  0
   11.0002   10.8890   20.0262 C   0  0  0  0  0  0  0  0  0  0  0  0
    2.1721    7.7393   20.0315 O   0  0  0  0  0  0  0  0  0  0  0  0
    9.1107   10.3880   21.3769 N   0  0  0  0  0  0  0  0  0  0  0  0
    3.9102    9.2008   20.3124 C   0  0  0  0  0  0  0  0  0  0  0  0
   12.7292   10.9960   18.4597 C   0  0  0  0  0  0  0  0  0  0  0  0
    9.3798    6.6793   23.6625 C   0  0  0  0  0  0  0  0  0  0  0  0
   14.7425   10.0739   19.0802 O   0  0  0  0  0  0  0  0  0  0  0  0
    5.1894    9.4673   20.7118 C   0  0  0  0  0  0  0  0  0  0  0  0
    7.3773    8.8224   21.4870 C   0  0  0  0  0  0  0  0  0  0  0  0
    8.4391    6.6439   21.0235 C   0  0  0  0  0  0  0  0  0  0  0  0
    9.6494   11.1353   20.4167 C   0  0  0  0  0  0  0  0  0  0  0  0
    8.1431    7.6829   21.9046 C   0  0  0  0  0  0  0  0  0  0  0  0
    7.7796   10.1314   21.5115 N   0  0  0  0  0  0  0  0  0  0  0  0
    9.2768    5.6183   21.4437 C   0  0  0  0  0  0  0  0  0  0  0  0
    8.6315    7.7322   23.1768 C   0  0  0  0  0  0  0  0  0  0  0  0
   13.0537    9.9821   20.5781 C   0  0  0  0  0  0  0  0  0  0  0  0
   10.3850    4.6575   23.2386 O   0  0  0  0  0  0  0  0  0  0  0  0
    4.2069    6.8450   20.7994 C   0  0  0  0  0  0  0  0  0  0  0  0
    3.0726   10.1043   19.8522 O   0  0  0  0  0  0  0  0  0  0  0  0
    5.5057    7.1196   21.1155 C   0  0  0  0  0  0  0  0  0  0  0  0
    7.0367   11.0229   21.9948 O   0  0  0  0  0  0  0  0  0  0  0  0
  1  8  4  0
  1 12  4  0
  2  9  1  0
  2 11  4  0
  2 25  4  0
  3 12  4  0
  3 14  1  0
  3 23  4  0
  4 13  4  0
  4 21  4  0
  4 24  1  0
  5  8  4  0
  5 23  4  0
  6 18  2  0
  7 15  4  0
  7 16  1  0
  7 27  4  0
  8 18  1  0
 10 18  1  0
 10 20  1  0
 11 15  4  0
 11 26  1  0
 13 22  4  0
 16 19  1  0
 16 20  2  0
 17 19  4  0
 17 21  4  0
 19 22  4  0
 20 28  1  0
 25 27  4  0
M  END
$$$$

 Created by Python create_sdf_string function

 28 30  0  0  0  0  0  0  0  0999 V2000
   11.4592   11.2893   18.7941 C   0  0  0  0  0  0  0  0  0  0  0  0
    3.4202    7.9009   20.3866 C   0  0  0  0  0  0  0  0  0  0  0  0
   13.5280   10.3522   19.3586 C   0  0  0  0  0  0  0  0  0  0  0  0
    9.6923    5.6468   22.7891 C   0  0  0  0  0  0  0  0  0  0  0  0
   11.7756   10.2554   20.8841 N   0  0  0  0  0  0  0  0  0  0  0  0
    8.9876   11.9370   19.8757 O   0  0  0  0  0  0  0  0  0  0  0  0
    6.0167    8.4478   21.1089 C   0  0  0  0  0  0  0  0  0  0  0  0
   11.0002   10.8890   20.0262 C   0  0  0  0  0  0  0  0  0  0  0  0
    2.1721    7.7393   20.0315 O   0  0  0  0  0  0  0  0  0  0  0  0
    9.1107   10.3880   21.3769 N   0  0  0  0  0  0  0  0  0  0  0  0
    3.9102    9.2008   20.3124 C   0  0  0  0  0  0  0  0  0  0  0  0
   12.7292   10.9960   18.4597 C   0  0  0  0  0  0  0  0  0  0  0  0
    9.3798    6.6793   23.6625 C   0  0  0  0  0  0  0  0  0  0  0  0
   14.7425   10.0739   19.0802 O   0  0  0  0  0  0  0  0  0  0  0  0
    5.1894    9.4673   20.7118 C   0  0  0  0  0  0  0  0  0  0  0  0
    7.3773    8.8224   21.4870 C   0  0  0  0  0  0  0  0  0  0  0  0
    8.4391    6.6439   21.0235 C   0  0  0  0  0  0  0  0  0  0  0  0
    9.6494   11.1353   20.4167 C   0  0  0  0  0  0  0  0  0  0  0  0
    8.1431    7.6829   21.9046 C   0  0  0  0  0  0  0  0  0  0  0  0
    7.7796   10.1314   21.5115 N   0  0  0  0  0  0  0  0  0  0  0  0
    9.2768    5.6183   21.4437 C   0  0  0  0  0  0  0  0  0  0  0  0
    8.6315    7.7322   23.1768 C   0  0  0  0  0  0  0  0  0  0  0  0
   13.0537    9.9821   20.5781 C   0  0  0  0  0  0  0  0  0  0  0  0
   10.3850    4.6575   23.2386 O   0  0  0  0  0  0  0  0  0  0  0  0
    4.2069    6.8450   20.7994 C   0  0  0  0  0  0  0  0  0  0  0  0
    3.0726   10.1043   19.8522 O   0  0  0  0  0  0  0  0  0  0  0  0
    5.5057    7.1196   21.1155 C   0  0  0  0  0  0  0  0  0  0  0  0
    7.0367   11.0229   21.9948 O   0  0  0  0  0  0  0  0  0  0  0  0
  1  8  4  0
  1 12  4  0
  2  9  1  0
  2 11  4  0
  2 25  4  0
  3 12  4  0
  3 14  1  0
  3 23  4  0
  4 13  4  0
  4 21  4  0
  4 24  1  0
  5  8  4  0
  5 23  4  0
  6 18  2  0
  7 15  4  0
  7 16  1  0
  7 27  4  0
  8 18  1  0
 10 18  1  0
 10 20  1  0
 11 15  4  0
 11 26  1  0
 13 22  4  0
 16 19  1  0
 16 20  2  0
 17 19  4  0
 17 21  4  0
 19 22  4  0
 20 28  1  0
 25 27  4  0
M  END
$$$$

 Created by Python create_sdf_string function

 28 30  0  0  0  0  0  0  0  0999 V2000
   11.4592   11.2893   18.7941 C   0  0  0  0  0  0  0  0  0  0  0  0
    3.4202    7.9009   20.3866 C   0  0  0  0  0  0  0  0  0  0  0  0
   13.5280   10.3522   19.3586 C   0  0  0  0  0  0  0  0  0  0  0  0
    9.6923    5.6468   22.7891 C   0  0  0  0  0  0  0  0  0  0  0  0
   11.7756   10.2554   20.8841 N   0  0  0  0  0  0  0  0  0  0  0  0
    8.9876   11.9370   19.8757 O   0  0  0  0  0  0  0  0  0  0  0  0
    6.0167    8.4478   21.1089 C   0  0  0  0  0  0  0  0  0  0  0  0
   11.0002   10.8890   20.0262 C   0  0  0  0  0  0  0  0  0  0  0  0
    2.1721    7.7393   20.0315 O   0  0  0  0  0  0  0  0  0  0  0  0
    9.1107   10.3880   21.3769 N   0  0  0  0  0  0  0  0  0  0  0  0
    3.9102    9.2008   20.3124 C   0  0  0  0  0  0  0  0  0  0  0  0
   12.7292   10.9960   18.4597 C   0  0  0  0  0  0  0  0  0  0  0  0
    9.3798    6.6793   23.6625 C   0  0  0  0  0  0  0  0  0  0  0  0
   14.7425   10.0739   19.0802 O   0  0  0  0  0  0  0  0  0  0  0  0
    5.1894    9.4673   20.7118 C   0  0  0  0  0  0  0  0  0  0  0  0
    7.3773    8.8224   21.4870 C   0  0  0  0  0  0  0  0  0  0  0  0
    8.4391    6.6439   21.0235 C   0  0  0  0  0  0  0  0  0  0  0  0
    9.6494   11.1353   20.4167 C   0  0  0  0  0  0  0  0  0  0  0  0
    8.1431    7.6829   21.9046 C   0  0  0  0  0  0  0  0  0  0  0  0
    7.7796   10.1314   21.5115 N   0  0  0  0  0  0  0  0  0  0  0  0
    9.2768    5.6183   21.4437 C   0  0  0  0  0  0  0  0  0  0  0  0
    8.6315    7.7322   23.1768 C   0  0  0  0  0  0  0  0  0  0  0  0
   13.0537    9.9821   20.5781 C   0  0  0  0  0  0  0  0  0  0  0  0
   10.3850    4.6575   23.2386 O   0  0  0  0  0  0  0  0  0  0  0  0
    4.2069    6.8450   20.7994 C   0  0  0  0  0  0  0  0  0  0  0  0
    3.0726   10.1043   19.8522 O   0  0  0  0  0  0  0  0  0  0  0  0
    5.5057    7.1196   21.1155 C   0  0  0  0  0  0  0  0  0  0  0  0
    7.0367   11.0229   21.9948 O   0  0  0  0  0  0  0  0  0  0  0  0
  1  8  4  0
  1 12  4  0
  2  9  1  0
  2 11  4  0
  2 25  4  0
  3 12  4  0
  3 14  1  0
  3 23  4  0
  4 13  4  0
  4 21  4  0
  4 24  1  0
  5  8  4  0
  5 23  4  0
  6 18  2  0
  7 15  4  0
  7 16  1  0
  7 27  4  0
  8 18  1  0
 10 18  1  0
 10 20  1  0
 11 15  4  0
 11 26  1  0
 13 22  4  0
 16 19  1  0
 16 20  2  0
 17 19  4  0
 17 21  4  0
 19 22  4  0
 20 28  1  0
 25 27  4  0
M  END
$$$$

 Created by Python create_sdf_string function

 28 30  0  0  0  0  0  0  0  0999 V2000
   11.4592   11.2893   18.7941 C   0  0  0  0  0  0  0  0  0  0  0  0
    3.4202    7.9009   20.3866 C   0  0  0  0  0  0  0  0  0  0  0  0
   13.5280   10.3522   19.3586 C   0  0  0  0  0  0  0  0  0  0  0  0
    9.6923    5.6468   22.7891 C   0  0  0  0  0  0  0  0  0  0  0  0
   11.7756   10.2554   20.8841 N   0  0  0  0  0  0  0  0  0  0  0  0
    8.9876   11.9370   19.8757 O   0  0  0  0  0  0  0  0  0  0  0  0
    6.0167    8.4478   21.1089 C   0  0  0  0  0  0  0  0  0  0  0  0
   11.0002   10.8890   20.0262 C   0  0  0  0  0  0  0  0  0  0  0  0
    2.1721    7.7393   20.0315 O   0  0  0  0  0  0  0  0  0  0  0  0
    9.1107   10.3880   21.3769 N   0  0  0  0  0  0  0  0  0  0  0  0
    3.9102    9.2008   20.3124 C   0  0  0  0  0  0  0  0  0  0  0  0
   12.7292   10.9960   18.4597 C   0  0  0  0  0  0  0  0  0  0  0  0
    9.3798    6.6793   23.6625 C   0  0  0  0  0  0  0  0  0  0  0  0
   14.7425   10.0739   19.0802 O   0  0  0  0  0  0  0  0  0  0  0  0
    5.1894    9.4673   20.7118 C   0  0  0  0  0  0  0  0  0  0  0  0
    7.3773    8.8224   21.4870 C   0  0  0  0  0  0  0  0  0  0  0  0
    8.4391    6.6439   21.0235 C   0  0  0  0  0  0  0  0  0  0  0  0
    9.6494   11.1353   20.4167 C   0  0  0  0  0  0  0  0  0  0  0  0
    8.1431    7.6829   21.9046 C   0  0  0  0  0  0  0  0  0  0  0  0
    7.7796   10.1314   21.5115 N   0  0  0  0  0  0  0  0  0  0  0  0
    9.2768    5.6183   21.4437 C   0  0  0  0  0  0  0  0  0  0  0  0
    8.6315    7.7322   23.1768 C   0  0  0  0  0  0  0  0  0  0  0  0
   13.0537    9.9821   20.5781 C   0  0  0  0  0  0  0  0  0  0  0  0
   10.3850    4.6575   23.2386 O   0  0  0  0  0  0  0  0  0  0  0  0
    4.2069    6.8450   20.7994 C   0  0  0  0  0  0  0  0  0  0  0  0
    3.0726   10.1043   19.8522 O   0  0  0  0  0  0  0  0  0  0  0  0
    5.5057    7.1196   21.1155 C   0  0  0  0  0  0  0  0  0  0  0  0
    7.0367   11.0229   21.9948 O   0  0  0  0  0  0  0  0  0  0  0  0
  1  8  4  0
  1 12  4  0
  2  9  1  0
  2 11  4  0
  2 25  4  0
  3 12  4  0
  3 14  1  0
  3 23  4  0
  4 13  4  0
  4 21  4  0
  4 24  1  0
  5  8  4  0
  5 23  4  0
  6 18  2  0
  7 15  4  0
  7 16  1  0
  7 27  4  0
  8 18  1  0
 10 18  1  0
 10 20  1  0
 11 15  4  0
 11 26  1  0
 13 22  4  0
 16 19  1  0
 16 20  2  0
 17 19  4  0
 17 21  4  0
 19 22  4  0
 20 28  1  0
 25 27  4  0
M  END
$$$$

 Created by Python create_sdf_string function

 28 30  0  0  0  0  0  0  0  0999 V2000
   11.4592   11.2893   18.7941 C   0  0  0  0  0  0  0  0  0  0  0  0
    3.4202    7.9009   20.3866 C   0  0  0  0  0  0  0  0  0  0  0  0
   13.5280   10.3522   19.3586 C   0  0  0  0  0  0  0  0  0  0  0  0
    9.6923    5.6468   22.7891 C   0  0  0  0  0  0  0  0  0  0  0  0
   11.7756   10.2554   20.8841 N   0  0  0  0  0  0  0  0  0  0  0  0
    8.9876   11.9370   19.8757 O   0  0  0  0  0  0  0  0  0  0  0  0
    6.0167    8.4478   21.1089 C   0  0  0  0  0  0  0  0  0  0  0  0
   11.0002   10.8890   20.0262 C   0  0  0  0  0  0  0  0  0  0  0  0
    2.1721    7.7393   20.0315 O   0  0  0  0  0  0  0  0  0  0  0  0
    9.1107   10.3880   21.3769 N   0  0  0  0  0  0  0  0  0  0  0  0
    3.9102    9.2008   20.3124 C   0  0  0  0  0  0  0  0  0  0  0  0
   12.7292   10.9960   18.4597 C   0  0  0  0  0  0  0  0  0  0  0  0
    9.3798    6.6793   23.6625 C   0  0  0  0  0  0  0  0  0  0  0  0
   14.7425   10.0739   19.0802 O   0  0  0  0  0  0  0  0  0  0  0  0
    5.1894    9.4673   20.7118 C   0  0  0  0  0  0  0  0  0  0  0  0
    7.3773    8.8224   21.4870 C   0  0  0  0  0  0  0  0  0  0  0  0
    8.4391    6.6439   21.0235 C   0  0  0  0  0  0  0  0  0  0  0  0
    9.6494   11.1353   20.4167 C   0  0  0  0  0  0  0  0  0  0  0  0
    8.1431    7.6829   21.9046 C   0  0  0  0  0  0  0  0  0  0  0  0
    7.7796   10.1314   21.5115 N   0  0  0  0  0  0  0  0  0  0  0  0
    9.2768    5.6183   21.4437 C   0  0  0  0  0  0  0  0  0  0  0  0
    8.6315    7.7322   23.1768 C   0  0  0  0  0  0  0  0  0  0  0  0
   13.0537    9.9821   20.5781 C   0  0  0  0  0  0  0  0  0  0  0  0
   10.3850    4.6575   23.2386 O   0  0  0  0  0  0  0  0  0  0  0  0
    4.2069    6.8450   20.7994 C   0  0  0  0  0  0  0  0  0  0  0  0
    3.0726   10.1043   19.8522 O   0  0  0  0  0  0  0  0  0  0  0  0
    5.5057    7.1196   21.1155 C   0  0  0  0  0  0  0  0  0  0  0  0
    7.0367   11.0229   21.9948 O   0  0  0  0  0  0  0  0  0  0  0  0
  1  8  4  0
  1 12  4  0
  2  9  1  0
  2 11  4  0
  2 25  4  0
  3 12  4  0
  3 14  1  0
  3 23  4  0
  4 13  4  0
  4 21  4  0
  4 24  1  0
  5  8  4  0
  5 23  4  0
  6 18  2  0
  7 15  4  0
  7 16  1  0
  7 27  4  0
  8 18  1  0
 10 18  1  0
 10 20  1  0
 11 15  4  0
 11 26  1  0
 13 22  4  0
 16 19  1  0
 16 20  2  0
 17 19  4  0
 17 21  4  0
 19 22  4  0
 20 28  1  0
 25 27  4  0
M  END
$$$$

 Created by Python create_sdf_string function

 28 30  0  0  0  0  0  0  0  0999 V2000
   11.4592   11.2893   18.7941 C   0  0  0  0  0  0  0  0  0  0  0  0
    3.4202    7.9009   20.3866 C   0  0  0  0  0  0  0  0  0  0  0  0
   13.5280   10.3522   19.3586 C   0  0  0  0  0  0  0  0  0  0  0  0
    9.6923    5.6468   22.7891 C   0  0  0  0  0  0  0  0  0  0  0  0
   11.7756   10.2554   20.8841 N   0  0  0  0  0  0  0  0  0  0  0  0
    8.9876   11.9370   19.8757 O   0  0  0  0  0  0  0  0  0  0  0  0
    6.0167    8.4478   21.1089 C   0  0  0  0  0  0  0  0  0  0  0  0
   11.0002   10.8890   20.0262 C   0  0  0  0  0  0  0  0  0  0  0  0
    2.1721    7.7393   20.0315 O   0  0  0  0  0  0  0  0  0  0  0  0
    9.1107   10.3880   21.3769 N   0  0  0  0  0  0  0  0  0  0  0  0
    3.9102    9.2008   20.3124 C   0  0  0  0  0  0  0  0  0  0  0  0
   12.7292   10.9960   18.4597 C   0  0  0  0  0  0  0  0  0  0  0  0
    9.3798    6.6793   23.6625 C   0  0  0  0  0  0  0  0  0  0  0  0
   14.7425   10.0739   19.0802 O   0  0  0  0  0  0  0  0  0  0  0  0
    5.1894    9.4673   20.7118 C   0  0  0  0  0  0  0  0  0  0  0  0
    7.3773    8.8224   21.4870 C   0  0  0  0  0  0  0  0  0  0  0  0
    8.4391    6.6439   21.0235 C   0  0  0  0  0  0  0  0  0  0  0  0
    9.6494   11.1353   20.4167 C   0  0  0  0  0  0  0  0  0  0  0  0
    8.1431    7.6829   21.9046 C   0  0  0  0  0  0  0  0  0  0  0  0
    7.7796   10.1314   21.5115 N   0  0  0  0  0  0  0  0  0  0  0  0
    9.2768    5.6183   21.4437 C   0  0  0  0  0  0  0  0  0  0  0  0
    8.6315    7.7322   23.1768 C   0  0  0  0  0  0  0  0  0  0  0  0
   13.0537    9.9821   20.5781 C   0  0  0  0  0  0  0  0  0  0  0  0
   10.3850    4.6575   23.2386 O   0  0  0  0  0  0  0  0  0  0  0  0
    4.2069    6.8450   20.7994 C   0  0  0  0  0  0  0  0  0  0  0  0
    3.0726   10.1043   19.8522 O   0  0  0  0  0  0  0  0  0  0  0  0
    5.5057    7.1196   21.1155 C   0  0  0  0  0  0  0  0  0  0  0  0
    7.0367   11.0229   21.9948 O   0  0  0  0  0  0  0  0  0  0  0  0
  1  8  4  0
  1 12  4  0
  2  9  1  0
  2 11  4  0
  2 25  4  0
  3 12  4  0
  3 14  1  0
  3 23  4  0
  4 13  4  0
  4 21  4  0
  4 24  1  0
  5  8  4  0
  5 23  4  0
  6 18  2  0
  7 15  4  0
  7 16  1  0
  7 27  4  0
  8 18  1  0
 10 18  1  0
 10 20  1  0
 11 15  4  0
 11 26  1  0
 13 22  4  0
 16 19  1  0
 16 20  2  0
 17 19  4  0
 17 21  4  0
 19 22  4  0
 20 28  1  0
 25 27  4  0
M  END
$$$$

 Created by Python create_sdf_string function

 28 30  0  0  0  0  0  0  0  0999 V2000
   11.4592   11.2893   18.7941 C   0  0  0  0  0  0  0  0  0  0  0  0
    3.4202    7.9009   20.3866 C   0  0  0  0  0  0  0  0  0  0  0  0
   13.5280   10.3522   19.3586 C   0  0  0  0  0  0  0  0  0  0  0  0
    9.6923    5.6468   22.7891 C   0  0  0  0  0  0  0  0  0  0  0  0
   11.7756   10.2554   20.8841 N   0  0  0  0  0  0  0  0  0  0  0  0
    8.9876   11.9370   19.8757 O   0  0  0  0  0  0  0  0  0  0  0  0
    6.0167    8.4478   21.1089 C   0  0  0  0  0  0  0  0  0  0  0  0
   11.0002   10.8890   20.0262 C   0  0  0  0  0  0  0  0  0  0  0  0
    2.1721    7.7393   20.0315 O   0  0  0  0  0  0  0  0  0  0  0  0
    9.1107   10.3880   21.3769 N   0  0  0  0  0  0  0  0  0  0  0  0
    3.9102    9.2008   20.3124 C   0  0  0  0  0  0  0  0  0  0  0  0
   12.7292   10.9960   18.4597 C   0  0  0  0  0  0  0  0  0  0  0  0
    9.3798    6.6793   23.6625 C   0  0  0  0  0  0  0  0  0  0  0  0
   14.7425   10.0739   19.0802 O   0  0  0  0  0  0  0  0  0  0  0  0
    5.1894    9.4673   20.7118 C   0  0  0  0  0  0  0  0  0  0  0  0
    7.3773    8.8224   21.4870 C   0  0  0  0  0  0  0  0  0  0  0  0
    8.4391    6.6439   21.0235 C   0  0  0  0  0  0  0  0  0  0  0  0
    9.6494   11.1353   20.4167 C   0  0  0  0  0  0  0  0  0  0  0  0
    8.1431    7.6829   21.9046 C   0  0  0  0  0  0  0  0  0  0  0  0
    7.7796   10.1314   21.5115 N   0  0  0  0  0  0  0  0  0  0  0  0
    9.2768    5.6183   21.4437 C   0  0  0  0  0  0  0  0  0  0  0  0
    8.6315    7.7322   23.1768 C   0  0  0  0  0  0  0  0  0  0  0  0
   13.0537    9.9821   20.5781 C   0  0  0  0  0  0  0  0  0  0  0  0
   10.3850    4.6575   23.2386 O   0  0  0  0  0  0  0  0  0  0  0  0
    4.2069    6.8450   20.7994 C   0  0  0  0  0  0  0  0  0  0  0  0
    3.0726   10.1043   19.8522 O   0  0  0  0  0  0  0  0  0  0  0  0
    5.5057    7.1196   21.1155 C   0  0  0  0  0  0  0  0  0  0  0  0
    7.0367   11.0229   21.9948 O   0  0  0  0  0  0  0  0  0  0  0  0
  1  8  4  0
  1 12  4  0
  2  9  1  0
  2 11  4  0
  2 25  4  0
  3 12  4  0
  3 14  1  0
  3 23  4  0
  4 13  4  0
  4 21  4  0
  4 24  1  0
  5  8  4  0
  5 23  4  0
  6 18  2  0
  7 15  4  0
  7 16  1  0
  7 27  4  0
  8 18  1  0
 10 18  1  0
 10 20  1  0
 11 15  4  0
 11 26  1  0
 13 22  4  0
 16 19  1  0
 16 20  2  0
 17 19  4  0
 17 21  4  0
 19 22  4  0
 20 28  1  0
 25 27  4  0
M  END
$$$$

 Created by Python create_sdf_string function

 28 30  0  0  0  0  0  0  0  0999 V2000
   11.4592   11.2893   18.7941 C   0  0  0  0  0  0  0  0  0  0  0  0
    3.4202    7.9009   20.3866 C   0  0  0  0  0  0  0  0  0  0  0  0
   13.5280   10.3522   19.3586 C   0  0  0  0  0  0  0  0  0  0  0  0
    9.6923    5.6468   22.7891 C   0  0  0  0  0  0  0  0  0  0  0  0
   11.7756   10.2554   20.8841 N   0  0  0  0  0  0  0  0  0  0  0  0
    8.9876   11.9370   19.8757 O   0  0  0  0  0  0  0  0  0  0  0  0
    6.0167    8.4478   21.1089 C   0  0  0  0  0  0  0  0  0  0  0  0
   11.0002   10.8890   20.0262 C   0  0  0  0  0  0  0  0  0  0  0  0
    2.1721    7.7393   20.0315 O   0  0  0  0  0  0  0  0  0  0  0  0
    9.1107   10.3880   21.3769 N   0  0  0  0  0  0  0  0  0  0  0  0
    3.9102    9.2008   20.3124 C   0  0  0  0  0  0  0  0  0  0  0  0
   12.7292   10.9960   18.4597 C   0  0  0  0  0  0  0  0  0  0  0  0
    9.3798    6.6793   23.6625 C   0  0  0  0  0  0  0  0  0  0  0  0
   14.7425   10.0739   19.0802 O   0  0  0  0  0  0  0  0  0  0  0  0
    5.1894    9.4673   20.7118 C   0  0  0  0  0  0  0  0  0  0  0  0
    7.3773    8.8224   21.4870 C   0  0  0  0  0  0  0  0  0  0  0  0
    8.4391    6.6439   21.0235 C   0  0  0  0  0  0  0  0  0  0  0  0
    9.6494   11.1353   20.4167 C   0  0  0  0  0  0  0  0  0  0  0  0
    8.1431    7.6829   21.9046 C   0  0  0  0  0  0  0  0  0  0  0  0
    7.7796   10.1314   21.5115 N   0  0  0  0  0  0  0  0  0  0  0  0
    9.2768    5.6183   21.4437 C   0  0  0  0  0  0  0  0  0  0  0  0
    8.6315    7.7322   23.1768 C   0  0  0  0  0  0  0  0  0  0  0  0
   13.0537    9.9821   20.5781 C   0  0  0  0  0  0  0  0  0  0  0  0
   10.3850    4.6575   23.2386 O   0  0  0  0  0  0  0  0  0  0  0  0
    4.2069    6.8450   20.7994 C   0  0  0  0  0  0  0  0  0  0  0  0
    3.0726   10.1043   19.8522 O   0  0  0  0  0  0  0  0  0  0  0  0
    5.5057    7.1196   21.1155 C   0  0  0  0  0  0  0  0  0  0  0  0
    7.0367   11.0229   21.9948 O   0  0  0  0  0  0  0  0  0  0  0  0
  1  8  4  0
  1 12  4  0
  2  9  1  0
  2 11  4  0
  2 25  4  0
  3 12  4  0
  3 14  1  0
  3 23  4  0
  4 13  4  0
  4 21  4  0
  4 24  1  0
  5  8  4  0
  5 23  4  0
  6 18  2  0
  7 15  4  0
  7 16  1  0
  7 27  4  0
  8 18  1  0
 10 18  1  0
 10 20  1  0
 11 15  4  0
 11 26  1  0
 13 22  4  0
 16 19  1  0
 16 20  2  0
 17 19  4  0
 17 21  4  0
 19 22  4  0
 20 28  1  0
 25 27  4  0
M  END
$$$$

 Created by Python create_sdf_string function

 28 30  0  0  0  0  0  0  0  0999 V2000
   11.4592   11.2893   18.7941 C   0  0  0  0  0  0  0  0  0  0  0  0
    3.4202    7.9009   20.3866 C   0  0  0  0  0  0  0  0  0  0  0  0
   13.5280   10.3522   19.3586 C   0  0  0  0  0  0  0  0  0  0  0  0
    9.6923    5.6468   22.7891 C   0  0  0  0  0  0  0  0  0  0  0  0
   11.7756   10.2554   20.8841 N   0  0  0  0  0  0  0  0  0  0  0  0
    8.9876   11.9370   19.8757 O   0  0  0  0  0  0  0  0  0  0  0  0
    6.0167    8.4478   21.1089 C   0  0  0  0  0  0  0  0  0  0  0  0
   11.0002   10.8890   20.0262 C   0  0  0  0  0  0  0  0  0  0  0  0
    2.1721    7.7393   20.0315 O   0  0  0  0  0  0  0  0  0  0  0  0
    9.1107   10.3880   21.3769 N   0  0  0  0  0  0  0  0  0  0  0  0
    3.9102    9.2008   20.3124 C   0  0  0  0  0  0  0  0  0  0  0  0
   12.7292   10.9960   18.4597 C   0  0  0  0  0  0  0  0  0  0  0  0
    9.3798    6.6793   23.6625 C   0  0  0  0  0  0  0  0  0  0  0  0
   14.7425   10.0739   19.0802 O   0  0  0  0  0  0  0  0  0  0  0  0
    5.1894    9.4673   20.7118 C   0  0  0  0  0  0  0  0  0  0  0  0
    7.3773    8.8224   21.4870 C   0  0  0  0  0  0  0  0  0  0  0  0
    8.4391    6.6439   21.0235 C   0  0  0  0  0  0  0  0  0  0  0  0
    9.6494   11.1353   20.4167 C   0  0  0  0  0  0  0  0  0  0  0  0
    8.1431    7.6829   21.9046 C   0  0  0  0  0  0  0  0  0  0  0  0
    7.7796   10.1314   21.5115 N   0  0  0  0  0  0  0  0  0  0  0  0
    9.2768    5.6183   21.4437 C   0  0  0  0  0  0  0  0  0  0  0  0
    8.6315    7.7322   23.1768 C   0  0  0  0  0  0  0  0  0  0  0  0
   13.0537    9.9821   20.5781 C   0  0  0  0  0  0  0  0  0  0  0  0
   10.3850    4.6575   23.2386 O   0  0  0  0  0  0  0  0  0  0  0  0
    4.2069    6.8450   20.7994 C   0  0  0  0  0  0  0  0  0  0  0  0
    3.0726   10.1043   19.8522 O   0  0  0  0  0  0  0  0  0  0  0  0
    5.5057    7.1196   21.1155 C   0  0  0  0  0  0  0  0  0  0  0  0
    7.0367   11.0229   21.9948 O   0  0  0  0  0  0  0  0  0  0  0  0
  1  8  4  0
  1 12  4  0
  2  9  1  0
  2 11  4  0
  2 25  4  0
  3 12  4  0
  3 14  1  0
  3 23  4  0
  4 13  4  0
  4 21  4  0
  4 24  1  0
  5  8  4  0
  5 23  4  0
  6 18  2  0
  7 15  4  0
  7 16  1  0
  7 27  4  0
  8 18  1  0
 10 18  1  0
 10 20  1  0
 11 15  4  0
 11 26  1  0
 13 22  4  0
 16 19  1  0
 16 20  2  0
 17 19  4  0
 17 21  4  0
 19 22  4  0
 20 28  1  0
 25 27  4  0
M  END
$$$$

 Created by Python create_sdf_string function

 28 30  0  0  0  0  0  0  0  0999 V2000
   11.4592   11.2893   18.7941 C   0  0  0  0  0  0  0  0  0  0  0  0
    3.4202    7.9009   20.3866 C   0  0  0  0  0  0  0  0  0  0  0  0
   13.5280   10.3522   19.3586 C   0  0  0  0  0  0  0  0  0  0  0  0
    9.6923    5.6468   22.7891 C   0  0  0  0  0  0  0  0  0  0  0  0
   11.7756   10.2554   20.8841 N   0  0  0  0  0  0  0  0  0  0  0  0
    8.9876   11.9370   19.8757 O   0  0  0  0  0  0  0  0  0  0  0  0
    6.0167    8.4478   21.1089 C   0  0  0  0  0  0  0  0  0  0  0  0
   11.0002   10.8890   20.0262 C   0  0  0  0  0  0  0  0  0  0  0  0
    2.1721    7.7393   20.0315 O   0  0  0  0  0  0  0  0  0  0  0  0
    9.1107   10.3880   21.3769 N   0  0  0  0  0  0  0  0  0  0  0  0
    3.9102    9.2008   20.3124 C   0  0  0  0  0  0  0  0  0  0  0  0
   12.7292   10.9960   18.4597 C   0  0  0  0  0  0  0  0  0  0  0  0
    9.3798    6.6793   23.6625 C   0  0  0  0  0  0  0  0  0  0  0  0
   14.7425   10.0739   19.0802 O   0  0  0  0  0  0  0  0  0  0  0  0
    5.1894    9.4673   20.7118 C   0  0  0  0  0  0  0  0  0  0  0  0
    7.3773    8.8224   21.4870 C   0  0  0  0  0  0  0  0  0  0  0  0
    8.4391    6.6439   21.0235 C   0  0  0  0  0  0  0  0  0  0  0  0
    9.6494   11.1353   20.4167 C   0  0  0  0  0  0  0  0  0  0  0  0
    8.1431    7.6829   21.9046 C   0  0  0  0  0  0  0  0  0  0  0  0
    7.7796   10.1314   21.5115 N   0  0  0  0  0  0  0  0  0  0  0  0
    9.2768    5.6183   21.4437 C   0  0  0  0  0  0  0  0  0  0  0  0
    8.6315    7.7322   23.1768 C   0  0  0  0  0  0  0  0  0  0  0  0
   13.0537    9.9821   20.5781 C   0  0  0  0  0  0  0  0  0  0  0  0
   10.3850    4.6575   23.2386 O   0  0  0  0  0  0  0  0  0  0  0  0
    4.2069    6.8450   20.7994 C   0  0  0  0  0  0  0  0  0  0  0  0
    3.0726   10.1043   19.8522 O   0  0  0  0  0  0  0  0  0  0  0  0
    5.5057    7.1196   21.1155 C   0  0  0  0  0  0  0  0  0  0  0  0
    7.0367   11.0229   21.9948 O   0  0  0  0  0  0  0  0  0  0  0  0
  1  8  4  0
  1 12  4  0
  2  9  1  0
  2 11  4  0
  2 25  4  0
  3 12  4  0
  3 14  1  0
  3 23  4  0
  4 13  4  0
  4 21  4  0
  4 24  1  0
  5  8  4  0
  5 23  4  0
  6 18  2  0
  7 15  4  0
  7 16  1  0
  7 27  4  0
  8 18  1  0
 10 18  1  0
 10 20  1  0
 11 15  4  0
 11 26  1  0
 13 22  4  0
 16 19  1  0
 16 20  2  0
 17 19  4  0
 17 21  4  0
 19 22  4  0
 20 28  1  0
 25 27  4  0
M  END
$$$$

 Created by Python create_sdf_string function

 28 30  0  0  0  0  0  0  0  0999 V2000
   11.4592   11.2893   18.7941 C   0  0  0  0  0  0  0  0  0  0  0  0
    3.4202    7.9009   20.3866 C   0  0  0  0  0  0  0  0  0  0  0  0
   13.5280   10.3522   19.3586 C   0  0  0  0  0  0  0  0  0  0  0  0
    9.6923    5.6468   22.7891 C   0  0  0  0  0  0  0  0  0  0  0  0
   11.7756   10.2554   20.8841 N   0  0  0  0  0  0  0  0  0  0  0  0
    8.9876   11.9370   19.8757 O   0  0  0  0  0  0  0  0  0  0  0  0
    6.0167    8.4478   21.1089 C   0  0  0  0  0  0  0  0  0  0  0  0
   11.0002   10.8890   20.0262 C   0  0  0  0  0  0  0  0  0  0  0  0
    2.1721    7.7393   20.0315 O   0  0  0  0  0  0  0  0  0  0  0  0
    9.1107   10.3880   21.3769 N   0  0  0  0  0  0  0  0  0  0  0  0
    3.9102    9.2008   20.3124 C   0  0  0  0  0  0  0  0  0  0  0  0
   12.7292   10.9960   18.4597 C   0  0  0  0  0  0  0  0  0  0  0  0
    9.3798    6.6793   23.6625 C   0  0  0  0  0  0  0  0  0  0  0  0
   14.7425   10.0739   19.0802 O   0  0  0  0  0  0  0  0  0  0  0  0
    5.1894    9.4673   20.7118 C   0  0  0  0  0  0  0  0  0  0  0  0
    7.3773    8.8224   21.4870 C   0  0  0  0  0  0  0  0  0  0  0  0
    8.4391    6.6439   21.0235 C   0  0  0  0  0  0  0  0  0  0  0  0
    9.6494   11.1353   20.4167 C   0  0  0  0  0  0  0  0  0  0  0  0
    8.1431    7.6829   21.9046 C   0  0  0  0  0  0  0  0  0  0  0  0
    7.7796   10.1314   21.5115 N   0  0  0  0  0  0  0  0  0  0  0  0
    9.2768    5.6183   21.4437 C   0  0  0  0  0  0  0  0  0  0  0  0
    8.6315    7.7322   23.1768 C   0  0  0  0  0  0  0  0  0  0  0  0
   13.0537    9.9821   20.5781 C   0  0  0  0  0  0  0  0  0  0  0  0
   10.3850    4.6575   23.2386 O   0  0  0  0  0  0  0  0  0  0  0  0
    4.2069    6.8450   20.7994 C   0  0  0  0  0  0  0  0  0  0  0  0
    3.0726   10.1043   19.8522 O   0  0  0  0  0  0  0  0  0  0  0  0
    5.5057    7.1196   21.1155 C   0  0  0  0  0  0  0  0  0  0  0  0
    7.0367   11.0229   21.9948 O   0  0  0  0  0  0  0  0  0  0  0  0
  1  8  4  0
  1 12  4  0
  2  9  1  0
  2 11  4  0
  2 25  4  0
  3 12  4  0
  3 14  1  0
  3 23  4  0
  4 13  4  0
  4 21  4  0
  4 24  1  0
  5  8  4  0
  5 23  4  0
  6 18  2  0
  7 15  4  0
  7 16  1  0
  7 27  4  0
  8 18  1  0
 10 18  1  0
 10 20  1  0
 11 15  4  0
 11 26  1  0
 13 22  4  0
 16 19  1  0
 16 20  2  0
 17 19  4  0
 17 21  4  0
 19 22  4  0
 20 28  1  0
 25 27  4  0
M  END
$$$$

 Created by Python create_sdf_string function

 28 30  0  0  0  0  0  0  0  0999 V2000
   11.4592   11.2893   18.7941 C   0  0  0  0  0  0  0  0  0  0  0  0
    3.4202    7.9009   20.3866 C   0  0  0  0  0  0  0  0  0  0  0  0
   13.5280   10.3522   19.3586 C   0  0  0  0  0  0  0  0  0  0  0  0
    9.6923    5.6468   22.7891 C   0  0  0  0  0  0  0  0  0  0  0  0
   11.7756   10.2554   20.8841 N   0  0  0  0  0  0  0  0  0  0  0  0
    8.9876   11.9370   19.8757 O   0  0  0  0  0  0  0  0  0  0  0  0
    6.0167    8.4478   21.1089 C   0  0  0  0  0  0  0  0  0  0  0  0
   11.0002   10.8890   20.0262 C   0  0  0  0  0  0  0  0  0  0  0  0
    2.1721    7.7393   20.0315 O   0  0  0  0  0  0  0  0  0  0  0  0
    9.1107   10.3880   21.3769 N   0  0  0  0  0  0  0  0  0  0  0  0
    3.9102    9.2008   20.3124 C   0  0  0  0  0  0  0  0  0  0  0  0
   12.7292   10.9960   18.4597 C   0  0  0  0  0  0  0  0  0  0  0  0
    9.3798    6.6793   23.6625 C   0  0  0  0  0  0  0  0  0  0  0  0
   14.7425   10.0739   19.0802 O   0  0  0  0  0  0  0  0  0  0  0  0
    5.1894    9.4673   20.7118 C   0  0  0  0  0  0  0  0  0  0  0  0
    7.3773    8.8224   21.4870 C   0  0  0  0  0  0  0  0  0  0  0  0
    8.4391    6.6439   21.0235 C   0  0  0  0  0  0  0  0  0  0  0  0
    9.6494   11.1353   20.4167 C   0  0  0  0  0  0  0  0  0  0  0  0
    8.1431    7.6829   21.9046 C   0  0  0  0  0  0  0  0  0  0  0  0
    7.7796   10.1314   21.5115 N   0  0  0  0  0  0  0  0  0  0  0  0
    9.2768    5.6183   21.4437 C   0  0  0  0  0  0  0  0  0  0  0  0
    8.6315    7.7322   23.1768 C   0  0  0  0  0  0  0  0  0  0  0  0
   13.0537    9.9821   20.5781 C   0  0  0  0  0  0  0  0  0  0  0  0
   10.3850    4.6575   23.2386 O   0  0  0  0  0  0  0  0  0  0  0  0
    4.2069    6.8450   20.7994 C   0  0  0  0  0  0  0  0  0  0  0  0
    3.0726   10.1043   19.8522 O   0  0  0  0  0  0  0  0  0  0  0  0
    5.5057    7.1196   21.1155 C   0  0  0  0  0  0  0  0  0  0  0  0
    7.0367   11.0229   21.9948 O   0  0  0  0  0  0  0  0  0  0  0  0
  1  8  4  0
  1 12  4  0
  2  9  1  0
  2 11  4  0
  2 25  4  0
  3 12  4  0
  3 14  1  0
  3 23  4  0
  4 13  4  0
  4 21  4  0
  4 24  1  0
  5  8  4  0
  5 23  4  0
  6 18  2  0
  7 15  4  0
  7 16  1  0
  7 27  4  0
  8 18  1  0
 10 18  1  0
 10 20  1  0
 11 15  4  0
 11 26  1  0
 13 22  4  0
 16 19  1  0
 16 20  2  0
 17 19  4  0
 17 21  4  0
 19 22  4  0
 20 28  1  0
 25 27  4  0
M  END
$$$$

 Created by Python create_sdf_string function

 28 30  0  0  0  0  0  0  0  0999 V2000
   11.4592   11.2893   18.7941 C   0  0  0  0  0  0  0  0  0  0  0  0
    3.4202    7.9009   20.3866 C   0  0  0  0  0  0  0  0  0  0  0  0
   13.5280   10.3522   19.3586 C   0  0  0  0  0  0  0  0  0  0  0  0
    9.6923    5.6468   22.7891 C   0  0  0  0  0  0  0  0  0  0  0  0
   11.7756   10.2554   20.8841 N   0  0  0  0  0  0  0  0  0  0  0  0
    8.9876   11.9370   19.8757 O   0  0  0  0  0  0  0  0  0  0  0  0
    6.0167    8.4478   21.1089 C   0  0  0  0  0  0  0  0  0  0  0  0
   11.0002   10.8890   20.0262 C   0  0  0  0  0  0  0  0  0  0  0  0
    2.1721    7.7393   20.0315 O   0  0  0  0  0  0  0  0  0  0  0  0
    9.1107   10.3880   21.3769 N   0  0  0  0  0  0  0  0  0  0  0  0
    3.9102    9.2008   20.3124 C   0  0  0  0  0  0  0  0  0  0  0  0
   12.7292   10.9960   18.4597 C   0  0  0  0  0  0  0  0  0  0  0  0
    9.3798    6.6793   23.6625 C   0  0  0  0  0  0  0  0  0  0  0  0
   14.7425   10.0739   19.0802 O   0  0  0  0  0  0  0  0  0  0  0  0
    5.1894    9.4673   20.7118 C   0  0  0  0  0  0  0  0  0  0  0  0
    7.3773    8.8224   21.4870 C   0  0  0  0  0  0  0  0  0  0  0  0
    8.4391    6.6439   21.0235 C   0  0  0  0  0  0  0  0  0  0  0  0
    9.6494   11.1353   20.4167 C   0  0  0  0  0  0  0  0  0  0  0  0
    8.1431    7.6829   21.9046 C   0  0  0  0  0  0  0  0  0  0  0  0
    7.7796   10.1314   21.5115 N   0  0  0  0  0  0  0  0  0  0  0  0
    9.2768    5.6183   21.4437 C   0  0  0  0  0  0  0  0  0  0  0  0
    8.6315    7.7322   23.1768 C   0  0  0  0  0  0  0  0  0  0  0  0
   13.0537    9.9821   20.5781 C   0  0  0  0  0  0  0  0  0  0  0  0
   10.3850    4.6575   23.2386 O   0  0  0  0  0  0  0  0  0  0  0  0
    4.2069    6.8450   20.7994 C   0  0  0  0  0  0  0  0  0  0  0  0
    3.0726   10.1043   19.8522 O   0  0  0  0  0  0  0  0  0  0  0  0
    5.5057    7.1196   21.1155 C   0  0  0  0  0  0  0  0  0  0  0  0
    7.0367   11.0229   21.9948 O   0  0  0  0  0  0  0  0  0  0  0  0
  1  8  4  0
  1 12  4  0
  2  9  1  0
  2 11  4  0
  2 25  4  0
  3 12  4  0
  3 14  1  0
  3 23  4  0
  4 13  4  0
  4 21  4  0
  4 24  1  0
  5  8  4  0
  5 23  4  0
  6 18  2  0
  7 15  4  0
  7 16  1  0
  7 27  4  0
  8 18  1  0
 10 18  1  0
 10 20  1  0
 11 15  4  0
 11 26  1  0
 13 22  4  0
 16 19  1  0
 16 20  2  0
 17 19  4  0
 17 21  4  0
 19 22  4  0
 20 28  1  0
 25 27  4  0
M  END
$$$$

 Created by Python create_sdf_string function

 28 30  0  0  0  0  0  0  0  0999 V2000
   11.4592   11.2893   18.7941 C   0  0  0  0  0  0  0  0  0  0  0  0
    3.4202    7.9009   20.3866 C   0  0  0  0  0  0  0  0  0  0  0  0
   13.5280   10.3522   19.3586 C   0  0  0  0  0  0  0  0  0  0  0  0
    9.6923    5.6468   22.7891 C   0  0  0  0  0  0  0  0  0  0  0  0
   11.7756   10.2554   20.8841 N   0  0  0  0  0  0  0  0  0  0  0  0
    8.9876   11.9370   19.8757 O   0  0  0  0  0  0  0  0  0  0  0  0
    6.0167    8.4478   21.1089 C   0  0  0  0  0  0  0  0  0  0  0  0
   11.0002   10.8890   20.0262 C   0  0  0  0  0  0  0  0  0  0  0  0
    2.1721    7.7393   20.0315 O   0  0  0  0  0  0  0  0  0  0  0  0
    9.1107   10.3880   21.3769 N   0  0  0  0  0  0  0  0  0  0  0  0
    3.9102    9.2008   20.3124 C   0  0  0  0  0  0  0  0  0  0  0  0
   12.7292   10.9960   18.4597 C   0  0  0  0  0  0  0  0  0  0  0  0
    9.3798    6.6793   23.6625 C   0  0  0  0  0  0  0  0  0  0  0  0
   14.7425   10.0739   19.0802 O   0  0  0  0  0  0  0  0  0  0  0  0
    5.1894    9.4673   20.7118 C   0  0  0  0  0  0  0  0  0  0  0  0
    7.3773    8.8224   21.4870 C   0  0  0  0  0  0  0  0  0  0  0  0
    8.4391    6.6439   21.0235 C   0  0  0  0  0  0  0  0  0  0  0  0
    9.6494   11.1353   20.4167 C   0  0  0  0  0  0  0  0  0  0  0  0
    8.1431    7.6829   21.9046 C   0  0  0  0  0  0  0  0  0  0  0  0
    7.7796   10.1314   21.5115 N   0  0  0  0  0  0  0  0  0  0  0  0
    9.2768    5.6183   21.4437 C   0  0  0  0  0  0  0  0  0  0  0  0
    8.6315    7.7322   23.1768 C   0  0  0  0  0  0  0  0  0  0  0  0
   13.0537    9.9821   20.5781 C   0  0  0  0  0  0  0  0  0  0  0  0
   10.3850    4.6575   23.2386 O   0  0  0  0  0  0  0  0  0  0  0  0
    4.2069    6.8450   20.7994 C   0  0  0  0  0  0  0  0  0  0  0  0
    3.0726   10.1043   19.8522 O   0  0  0  0  0  0  0  0  0  0  0  0
    5.5057    7.1196   21.1155 C   0  0  0  0  0  0  0  0  0  0  0  0
    7.0367   11.0229   21.9948 O   0  0  0  0  0  0  0  0  0  0  0  0
  1  8  4  0
  1 12  4  0
  2  9  1  0
  2 11  4  0
  2 25  4  0
  3 12  4  0
  3 14  1  0
  3 23  4  0
  4 13  4  0
  4 21  4  0
  4 24  1  0
  5  8  4  0
  5 23  4  0
  6 18  2  0
  7 15  4  0
  7 16  1  0
  7 27  4  0
  8 18  1  0
 10 18  1  0
 10 20  1  0
 11 15  4  0
 11 26  1  0
 13 22  4  0
 16 19  1  0
 16 20  2  0
 17 19  4  0
 17 21  4  0
 19 22  4  0
 20 28  1  0
 25 27  4  0
M  END
$$$$

 Created by Python create_sdf_string function

 28 30  0  0  0  0  0  0  0  0999 V2000
   11.4592   11.2893   18.7941 C   0  0  0  0  0  0  0  0  0  0  0  0
    3.4202    7.9009   20.3866 C   0  0  0  0  0  0  0  0  0  0  0  0
   13.5280   10.3522   19.3586 C   0  0  0  0  0  0  0  0  0  0  0  0
    9.6923    5.6468   22.7891 C   0  0  0  0  0  0  0  0  0  0  0  0
   11.7756   10.2554   20.8841 N   0  0  0  0  0  0  0  0  0  0  0  0
    8.9876   11.9370   19.8757 O   0  0  0  0  0  0  0  0  0  0  0  0
    6.0167    8.4478   21.1089 C   0  0  0  0  0  0  0  0  0  0  0  0
   11.0002   10.8890   20.0262 C   0  0  0  0  0  0  0  0  0  0  0  0
    2.1721    7.7393   20.0315 O   0  0  0  0  0  0  0  0  0  0  0  0
    9.1107   10.3880   21.3769 N   0  0  0  0  0  0  0  0  0  0  0  0
    3.9102    9.2008   20.3124 C   0  0  0  0  0  0  0  0  0  0  0  0
   12.7292   10.9960   18.4597 C   0  0  0  0  0  0  0  0  0  0  0  0
    9.3798    6.6793   23.6625 C   0  0  0  0  0  0  0  0  0  0  0  0
   14.7425   10.0739   19.0802 O   0  0  0  0  0  0  0  0  0  0  0  0
    5.1894    9.4673   20.7118 C   0  0  0  0  0  0  0  0  0  0  0  0
    7.3773    8.8224   21.4870 C   0  0  0  0  0  0  0  0  0  0  0  0
    8.4391    6.6439   21.0235 C   0  0  0  0  0  0  0  0  0  0  0  0
    9.6494   11.1353   20.4167 C   0  0  0  0  0  0  0  0  0  0  0  0
    8.1431    7.6829   21.9046 C   0  0  0  0  0  0  0  0  0  0  0  0
    7.7796   10.1314   21.5115 N   0  0  0  0  0  0  0  0  0  0  0  0
    9.2768    5.6183   21.4437 C   0  0  0  0  0  0  0  0  0  0  0  0
    8.6315    7.7322   23.1768 C   0  0  0  0  0  0  0  0  0  0  0  0
   13.0537    9.9821   20.5781 C   0  0  0  0  0  0  0  0  0  0  0  0
   10.3850    4.6575   23.2386 O   0  0  0  0  0  0  0  0  0  0  0  0
    4.2069    6.8450   20.7994 C   0  0  0  0  0  0  0  0  0  0  0  0
    3.0726   10.1043   19.8522 O   0  0  0  0  0  0  0  0  0  0  0  0
    5.5057    7.1196   21.1155 C   0  0  0  0  0  0  0  0  0  0  0  0
    7.0367   11.0229   21.9948 O   0  0  0  0  0  0  0  0  0  0  0  0
  1  8  4  0
  1 12  4  0
  2  9  1  0
  2 11  4  0
  2 25  4  0
  3 12  4  0
  3 14  1  0
  3 23  4  0
  4 13  4  0
  4 21  4  0
  4 24  1  0
  5  8  4  0
  5 23  4  0
  6 18  2  0
  7 15  4  0
  7 16  1  0
  7 27  4  0
  8 18  1  0
 10 18  1  0
 10 20  1  0
 11 15  4  0
 11 26  1  0
 13 22  4  0
 16 19  1  0
 16 20  2  0
 17 19  4  0
 17 21  4  0
 19 22  4  0
 20 28  1  0
 25 27  4  0
M  END
$$$$

 Created by Python create_sdf_string function

 28 30  0  0  0  0  0  0  0  0999 V2000
   11.4592   11.2893   18.7941 C   0  0  0  0  0  0  0  0  0  0  0  0
    3.4202    7.9009   20.3866 C   0  0  0  0  0  0  0  0  0  0  0  0
   13.5280   10.3522   19.3586 C   0  0  0  0  0  0  0  0  0  0  0  0
    9.6923    5.6468   22.7891 C   0  0  0  0  0  0  0  0  0  0  0  0
   11.7756   10.2554   20.8841 N   0  0  0  0  0  0  0  0  0  0  0  0
    8.9876   11.9370   19.8757 O   0  0  0  0  0  0  0  0  0  0  0  0
    6.0167    8.4478   21.1089 C   0  0  0  0  0  0  0  0  0  0  0  0
   11.0002   10.8890   20.0262 C   0  0  0  0  0  0  0  0  0  0  0  0
    2.1721    7.7393   20.0315 O   0  0  0  0  0  0  0  0  0  0  0  0
    9.1107   10.3880   21.3769 N   0  0  0  0  0  0  0  0  0  0  0  0
    3.9102    9.2008   20.3124 C   0  0  0  0  0  0  0  0  0  0  0  0
   12.7292   10.9960   18.4597 C   0  0  0  0  0  0  0  0  0  0  0  0
    9.3798    6.6793   23.6625 C   0  0  0  0  0  0  0  0  0  0  0  0
   14.7425   10.0739   19.0802 O   0  0  0  0  0  0  0  0  0  0  0  0
    5.1894    9.4673   20.7118 C   0  0  0  0  0  0  0  0  0  0  0  0
    7.3773    8.8224   21.4870 C   0  0  0  0  0  0  0  0  0  0  0  0
    8.4391    6.6439   21.0235 C   0  0  0  0  0  0  0  0  0  0  0  0
    9.6494   11.1353   20.4167 C   0  0  0  0  0  0  0  0  0  0  0  0
    8.1431    7.6829   21.9046 C   0  0  0  0  0  0  0  0  0  0  0  0
    7.7796   10.1314   21.5115 N   0  0  0  0  0  0  0  0  0  0  0  0
    9.2768    5.6183   21.4437 C   0  0  0  0  0  0  0  0  0  0  0  0
    8.6315    7.7322   23.1768 C   0  0  0  0  0  0  0  0  0  0  0  0
   13.0537    9.9821   20.5781 C   0  0  0  0  0  0  0  0  0  0  0  0
   10.3850    4.6575   23.2386 O   0  0  0  0  0  0  0  0  0  0  0  0
    4.2069    6.8450   20.7994 C   0  0  0  0  0  0  0  0  0  0  0  0
    3.0726   10.1043   19.8522 O   0  0  0  0  0  0  0  0  0  0  0  0
    5.5057    7.1196   21.1155 C   0  0  0  0  0  0  0  0  0  0  0  0
    7.0367   11.0229   21.9948 O   0  0  0  0  0  0  0  0  0  0  0  0
  1  8  4  0
  1 12  4  0
  2  9  1  0
  2 11  4  0
  2 25  4  0
  3 12  4  0
  3 14  1  0
  3 23  4  0
  4 13  4  0
  4 21  4  0
  4 24  1  0
  5  8  4  0
  5 23  4  0
  6 18  2  0
  7 15  4  0
  7 16  1  0
  7 27  4  0
  8 18  1  0
 10 18  1  0
 10 20  1  0
 11 15  4  0
 11 26  1  0
 13 22  4  0
 16 19  1  0
 16 20  2  0
 17 19  4  0
 17 21  4  0
 19 22  4  0
 20 28  1  0
 25 27  4  0
M  END
$$$$

 Created by Python create_sdf_string function

 28 30  0  0  0  0  0  0  0  0999 V2000
   11.4592   11.2893   18.7941 C   0  0  0  0  0  0  0  0  0  0  0  0
    3.4202    7.9009   20.3866 C   0  0  0  0  0  0  0  0  0  0  0  0
   13.5280   10.3522   19.3586 C   0  0  0  0  0  0  0  0  0  0  0  0
    9.6923    5.6468   22.7891 C   0  0  0  0  0  0  0  0  0  0  0  0
   11.7756   10.2554   20.8841 N   0  0  0  0  0  0  0  0  0  0  0  0
    8.9876   11.9370   19.8757 O   0  0  0  0  0  0  0  0  0  0  0  0
    6.0167    8.4478   21.1089 C   0  0  0  0  0  0  0  0  0  0  0  0
   11.0002   10.8890   20.0262 C   0  0  0  0  0  0  0  0  0  0  0  0
    2.1721    7.7393   20.0315 O   0  0  0  0  0  0  0  0  0  0  0  0
    9.1107   10.3880   21.3769 N   0  0  0  0  0  0  0  0  0  0  0  0
    3.9102    9.2008   20.3124 C   0  0  0  0  0  0  0  0  0  0  0  0
   12.7292   10.9960   18.4597 C   0  0  0  0  0  0  0  0  0  0  0  0
    9.3798    6.6793   23.6625 C   0  0  0  0  0  0  0  0  0  0  0  0
   14.7425   10.0739   19.0802 O   0  0  0  0  0  0  0  0  0  0  0  0
    5.1894    9.4673   20.7118 C   0  0  0  0  0  0  0  0  0  0  0  0
    7.3773    8.8224   21.4870 C   0  0  0  0  0  0  0  0  0  0  0  0
    8.4391    6.6439   21.0235 C   0  0  0  0  0  0  0  0  0  0  0  0
    9.6494   11.1353   20.4167 C   0  0  0  0  0  0  0  0  0  0  0  0
    8.1431    7.6829   21.9046 C   0  0  0  0  0  0  0  0  0  0  0  0
    7.7796   10.1314   21.5115 N   0  0  0  0  0  0  0  0  0  0  0  0
    9.2768    5.6183   21.4437 C   0  0  0  0  0  0  0  0  0  0  0  0
    8.6315    7.7322   23.1768 C   0  0  0  0  0  0  0  0  0  0  0  0
   13.0537    9.9821   20.5781 C   0  0  0  0  0  0  0  0  0  0  0  0
   10.3850    4.6575   23.2386 O   0  0  0  0  0  0  0  0  0  0  0  0
    4.2069    6.8450   20.7994 C   0  0  0  0  0  0  0  0  0  0  0  0
    3.0726   10.1043   19.8522 O   0  0  0  0  0  0  0  0  0  0  0  0
    5.5057    7.1196   21.1155 C   0  0  0  0  0  0  0  0  0  0  0  0
    7.0367   11.0229   21.9948 O   0  0  0  0  0  0  0  0  0  0  0  0
  1  8  4  0
  1 12  4  0
  2  9  1  0
  2 11  4  0
  2 25  4  0
  3 12  4  0
  3 14  1  0
  3 23  4  0
  4 13  4  0
  4 21  4  0
  4 24  1  0
  5  8  4  0
  5 23  4  0
  6 18  2  0
  7 15  4  0
  7 16  1  0
  7 27  4  0
  8 18  1  0
 10 18  1  0
 10 20  1  0
 11 15  4  0
 11 26  1  0
 13 22  4  0
 16 19  1  0
 16 20  2  0
 17 19  4  0
 17 21  4  0
 19 22  4  0
 20 28  1  0
 25 27  4  0
M  END
$$$$

 Created by Python create_sdf_string function

 28 30  0  0  0  0  0  0  0  0999 V2000
   11.4592   11.2893   18.7941 C   0  0  0  0  0  0  0  0  0  0  0  0
    3.4202    7.9009   20.3866 C   0  0  0  0  0  0  0  0  0  0  0  0
   13.5280   10.3522   19.3586 C   0  0  0  0  0  0  0  0  0  0  0  0
    9.6923    5.6468   22.7891 C   0  0  0  0  0  0  0  0  0  0  0  0
   11.7756   10.2554   20.8841 N   0  0  0  0  0  0  0  0  0  0  0  0
    8.9876   11.9370   19.8757 O   0  0  0  0  0  0  0  0  0  0  0  0
    6.0167    8.4478   21.1089 C   0  0  0  0  0  0  0  0  0  0  0  0
   11.0002   10.8890   20.0262 C   0  0  0  0  0  0  0  0  0  0  0  0
    2.1721    7.7393   20.0315 O   0  0  0  0  0  0  0  0  0  0  0  0
    9.1107   10.3880   21.3769 N   0  0  0  0  0  0  0  0  0  0  0  0
    3.9102    9.2008   20.3124 C   0  0  0  0  0  0  0  0  0  0  0  0
   12.7292   10.9960   18.4597 C   0  0  0  0  0  0  0  0  0  0  0  0
    9.3798    6.6793   23.6625 C   0  0  0  0  0  0  0  0  0  0  0  0
   14.7425   10.0739   19.0802 O   0  0  0  0  0  0  0  0  0  0  0  0
    5.1894    9.4673   20.7118 C   0  0  0  0  0  0  0  0  0  0  0  0
    7.3773    8.8224   21.4870 C   0  0  0  0  0  0  0  0  0  0  0  0
    8.4391    6.6439   21.0235 C   0  0  0  0  0  0  0  0  0  0  0  0
    9.6494   11.1353   20.4167 C   0  0  0  0  0  0  0  0  0  0  0  0
    8.1431    7.6829   21.9046 C   0  0  0  0  0  0  0  0  0  0  0  0
    7.7796   10.1314   21.5115 N   0  0  0  0  0  0  0  0  0  0  0  0
    9.2768    5.6183   21.4437 C   0  0  0  0  0  0  0  0  0  0  0  0
    8.6315    7.7322   23.1768 C   0  0  0  0  0  0  0  0  0  0  0  0
   13.0537    9.9821   20.5781 C   0  0  0  0  0  0  0  0  0  0  0  0
   10.3850    4.6575   23.2386 O   0  0  0  0  0  0  0  0  0  0  0  0
    4.2069    6.8450   20.7994 C   0  0  0  0  0  0  0  0  0  0  0  0
    3.0726   10.1043   19.8522 O   0  0  0  0  0  0  0  0  0  0  0  0
    5.5057    7.1196   21.1155 C   0  0  0  0  0  0  0  0  0  0  0  0
    7.0367   11.0229   21.9948 O   0  0  0  0  0  0  0  0  0  0  0  0
  1  8  4  0
  1 12  4  0
  2  9  1  0
  2 11  4  0
  2 25  4  0
  3 12  4  0
  3 14  1  0
  3 23  4  0
  4 13  4  0
  4 21  4  0
  4 24  1  0
  5  8  4  0
  5 23  4  0
  6 18  2  0
  7 15  4  0
  7 16  1  0
  7 27  4  0
  8 18  1  0
 10 18  1  0
 10 20  1  0
 11 15  4  0
 11 26  1  0
 13 22  4  0
 16 19  1  0
 16 20  2  0
 17 19  4  0
 17 21  4  0
 19 22  4  0
 20 28  1  0
 25 27  4  0
M  END
$$$$

 Created by Python create_sdf_string function

 28 30  0  0  0  0  0  0  0  0999 V2000
   11.4592   11.2893   18.7941 C   0  0  0  0  0  0  0  0  0  0  0  0
    3.4202    7.9009   20.3866 C   0  0  0  0  0  0  0  0  0  0  0  0
   13.5280   10.3522   19.3586 C   0  0  0  0  0  0  0  0  0  0  0  0
    9.6923    5.6468   22.7891 C   0  0  0  0  0  0  0  0  0  0  0  0
   11.7756   10.2554   20.8841 N   0  0  0  0  0  0  0  0  0  0  0  0
    8.9876   11.9370   19.8757 O   0  0  0  0  0  0  0  0  0  0  0  0
    6.0167    8.4478   21.1089 C   0  0  0  0  0  0  0  0  0  0  0  0
   11.0002   10.8890   20.0262 C   0  0  0  0  0  0  0  0  0  0  0  0
    2.1721    7.7393   20.0315 O   0  0  0  0  0  0  0  0  0  0  0  0
    9.1107   10.3880   21.3769 N   0  0  0  0  0  0  0  0  0  0  0  0
    3.9102    9.2008   20.3124 C   0  0  0  0  0  0  0  0  0  0  0  0
   12.7292   10.9960   18.4597 C   0  0  0  0  0  0  0  0  0  0  0  0
    9.3798    6.6793   23.6625 C   0  0  0  0  0  0  0  0  0  0  0  0
   14.7425   10.0739   19.0802 O   0  0  0  0  0  0  0  0  0  0  0  0
    5.1894    9.4673   20.7118 C   0  0  0  0  0  0  0  0  0  0  0  0
    7.3773    8.8224   21.4870 C   0  0  0  0  0  0  0  0  0  0  0  0
    8.4391    6.6439   21.0235 C   0  0  0  0  0  0  0  0  0  0  0  0
    9.6494   11.1353   20.4167 C   0  0  0  0  0  0  0  0  0  0  0  0
    8.1431    7.6829   21.9046 C   0  0  0  0  0  0  0  0  0  0  0  0
    7.7796   10.1314   21.5115 N   0  0  0  0  0  0  0  0  0  0  0  0
    9.2768    5.6183   21.4437 C   0  0  0  0  0  0  0  0  0  0  0  0
    8.6315    7.7322   23.1768 C   0  0  0  0  0  0  0  0  0  0  0  0
   13.0537    9.9821   20.5781 C   0  0  0  0  0  0  0  0  0  0  0  0
   10.3850    4.6575   23.2386 O   0  0  0  0  0  0  0  0  0  0  0  0
    4.2069    6.8450   20.7994 C   0  0  0  0  0  0  0  0  0  0  0  0
    3.0726   10.1043   19.8522 O   0  0  0  0  0  0  0  0  0  0  0  0
    5.5057    7.1196   21.1155 C   0  0  0  0  0  0  0  0  0  0  0  0
    7.0367   11.0229   21.9948 O   0  0  0  0  0  0  0  0  0  0  0  0
  1  8  4  0
  1 12  4  0
  2  9  1  0
  2 11  4  0
  2 25  4  0
  3 12  4  0
  3 14  1  0
  3 23  4  0
  4 13  4  0
  4 21  4  0
  4 24  1  0
  5  8  4  0
  5 23  4  0
  6 18  2  0
  7 15  4  0
  7 16  1  0
  7 27  4  0
  8 18  1  0
 10 18  1  0
 10 20  1  0
 11 15  4  0
 11 26  1  0
 13 22  4  0
 16 19  1  0
 16 20  2  0
 17 19  4  0
 17 21  4  0
 19 22  4  0
 20 28  1  0
 25 27  4  0
M  END
$$$$

 Created by Python create_sdf_string function

 28 30  0  0  0  0  0  0  0  0999 V2000
   11.4592   11.2893   18.7941 C   0  0  0  0  0  0  0  0  0  0  0  0
    3.4202    7.9009   20.3866 C   0  0  0  0  0  0  0  0  0  0  0  0
   13.5280   10.3522   19.3586 C   0  0  0  0  0  0  0  0  0  0  0  0
    9.6923    5.6468   22.7891 C   0  0  0  0  0  0  0  0  0  0  0  0
   11.7756   10.2554   20.8841 N   0  0  0  0  0  0  0  0  0  0  0  0
    8.9876   11.9370   19.8757 O   0  0  0  0  0  0  0  0  0  0  0  0
    6.0167    8.4478   21.1089 C   0  0  0  0  0  0  0  0  0  0  0  0
   11.0002   10.8890   20.0262 C   0  0  0  0  0  0  0  0  0  0  0  0
    2.1721    7.7393   20.0315 O   0  0  0  0  0  0  0  0  0  0  0  0
    9.1107   10.3880   21.3769 N   0  0  0  0  0  0  0  0  0  0  0  0
    3.9102    9.2008   20.3124 C   0  0  0  0  0  0  0  0  0  0  0  0
   12.7292   10.9960   18.4597 C   0  0  0  0  0  0  0  0  0  0  0  0
    9.3798    6.6793   23.6625 C   0  0  0  0  0  0  0  0  0  0  0  0
   14.7425   10.0739   19.0802 O   0  0  0  0  0  0  0  0  0  0  0  0
    5.1894    9.4673   20.7118 C   0  0  0  0  0  0  0  0  0  0  0  0
    7.3773    8.8224   21.4870 C   0  0  0  0  0  0  0  0  0  0  0  0
    8.4391    6.6439   21.0235 C   0  0  0  0  0  0  0  0  0  0  0  0
    9.6494   11.1353   20.4167 C   0  0  0  0  0  0  0  0  0  0  0  0
    8.1431    7.6829   21.9046 C   0  0  0  0  0  0  0  0  0  0  0  0
    7.7796   10.1314   21.5115 N   0  0  0  0  0  0  0  0  0  0  0  0
    9.2768    5.6183   21.4437 C   0  0  0  0  0  0  0  0  0  0  0  0
    8.6315    7.7322   23.1768 C   0  0  0  0  0  0  0  0  0  0  0  0
   13.0537    9.9821   20.5781 C   0  0  0  0  0  0  0  0  0  0  0  0
   10.3850    4.6575   23.2386 O   0  0  0  0  0  0  0  0  0  0  0  0
    4.2069    6.8450   20.7994 C   0  0  0  0  0  0  0  0  0  0  0  0
    3.0726   10.1043   19.8522 O   0  0  0  0  0  0  0  0  0  0  0  0
    5.5057    7.1196   21.1155 C   0  0  0  0  0  0  0  0  0  0  0  0
    7.0367   11.0229   21.9948 O   0  0  0  0  0  0  0  0  0  0  0  0
  1  8  4  0
  1 12  4  0
  2  9  1  0
  2 11  4  0
  2 25  4  0
  3 12  4  0
  3 14  1  0
  3 23  4  0
  4 13  4  0
  4 21  4  0
  4 24  1  0
  5  8  4  0
  5 23  4  0
  6 18  2  0
  7 15  4  0
  7 16  1  0
  7 27  4  0
  8 18  1  0
 10 18  1  0
 10 20  1  0
 11 15  4  0
 11 26  1  0
 13 22  4  0
 16 19  1  0
 16 20  2  0
 17 19  4  0
 17 21  4  0
 19 22  4  0
 20 28  1  0
 25 27  4  0
M  END
$$$$

 Created by Python create_sdf_string function

 28 30  0  0  0  0  0  0  0  0999 V2000
   11.4592   11.2893   18.7941 C   0  0  0  0  0  0  0  0  0  0  0  0
    3.4202    7.9009   20.3866 C   0  0  0  0  0  0  0  0  0  0  0  0
   13.5280   10.3522   19.3586 C   0  0  0  0  0  0  0  0  0  0  0  0
    9.6923    5.6468   22.7891 C   0  0  0  0  0  0  0  0  0  0  0  0
   11.7756   10.2554   20.8841 N   0  0  0  0  0  0  0  0  0  0  0  0
    8.9876   11.9370   19.8757 O   0  0  0  0  0  0  0  0  0  0  0  0
    6.0167    8.4478   21.1089 C   0  0  0  0  0  0  0  0  0  0  0  0
   11.0002   10.8890   20.0262 C   0  0  0  0  0  0  0  0  0  0  0  0
    2.1721    7.7393   20.0315 O   0  0  0  0  0  0  0  0  0  0  0  0
    9.1107   10.3880   21.3769 N   0  0  0  0  0  0  0  0  0  0  0  0
    3.9102    9.2008   20.3124 C   0  0  0  0  0  0  0  0  0  0  0  0
   12.7292   10.9960   18.4597 C   0  0  0  0  0  0  0  0  0  0  0  0
    9.3798    6.6793   23.6625 C   0  0  0  0  0  0  0  0  0  0  0  0
   14.7425   10.0739   19.0802 O   0  0  0  0  0  0  0  0  0  0  0  0
    5.1894    9.4673   20.7118 C   0  0  0  0  0  0  0  0  0  0  0  0
    7.3773    8.8224   21.4870 C   0  0  0  0  0  0  0  0  0  0  0  0
    8.4391    6.6439   21.0235 C   0  0  0  0  0  0  0  0  0  0  0  0
    9.6494   11.1353   20.4167 C   0  0  0  0  0  0  0  0  0  0  0  0
    8.1431    7.6829   21.9046 C   0  0  0  0  0  0  0  0  0  0  0  0
    7.7796   10.1314   21.5115 N   0  0  0  0  0  0  0  0  0  0  0  0
    9.2768    5.6183   21.4437 C   0  0  0  0  0  0  0  0  0  0  0  0
    8.6315    7.7322   23.1768 C   0  0  0  0  0  0  0  0  0  0  0  0
   13.0537    9.9821   20.5781 C   0  0  0  0  0  0  0  0  0  0  0  0
   10.3850    4.6575   23.2386 O   0  0  0  0  0  0  0  0  0  0  0  0
    4.2069    6.8450   20.7994 C   0  0  0  0  0  0  0  0  0  0  0  0
    3.0726   10.1043   19.8522 O   0  0  0  0  0  0  0  0  0  0  0  0
    5.5057    7.1196   21.1155 C   0  0  0  0  0  0  0  0  0  0  0  0
    7.0367   11.0229   21.9948 O   0  0  0  0  0  0  0  0  0  0  0  0
  1  8  4  0
  1 12  4  0
  2  9  1  0
  2 11  4  0
  2 25  4  0
  3 12  4  0
  3 14  1  0
  3 23  4  0
  4 13  4  0
  4 21  4  0
  4 24  1  0
  5  8  4  0
  5 23  4  0
  6 18  2  0
  7 15  4  0
  7 16  1  0
  7 27  4  0
  8 18  1  0
 10 18  1  0
 10 20  1  0
 11 15  4  0
 11 26  1  0
 13 22  4  0
 16 19  1  0
 16 20  2  0
 17 19  4  0
 17 21  4  0
 19 22  4  0
 20 28  1  0
 25 27  4  0
M  END
$$$$

 Created by Python create_sdf_string function

 28 30  0  0  0  0  0  0  0  0999 V2000
   11.4592   11.2893   18.7941 C   0  0  0  0  0  0  0  0  0  0  0  0
    3.4202    7.9009   20.3866 C   0  0  0  0  0  0  0  0  0  0  0  0
   13.5280   10.3522   19.3586 C   0  0  0  0  0  0  0  0  0  0  0  0
    9.6923    5.6468   22.7891 C   0  0  0  0  0  0  0  0  0  0  0  0
   11.7756   10.2554   20.8841 N   0  0  0  0  0  0  0  0  0  0  0  0
    8.9876   11.9370   19.8757 O   0  0  0  0  0  0  0  0  0  0  0  0
    6.0167    8.4478   21.1089 C   0  0  0  0  0  0  0  0  0  0  0  0
   11.0002   10.8890   20.0262 C   0  0  0  0  0  0  0  0  0  0  0  0
    2.1721    7.7393   20.0315 O   0  0  0  0  0  0  0  0  0  0  0  0
    9.1107   10.3880   21.3769 N   0  0  0  0  0  0  0  0  0  0  0  0
    3.9102    9.2008   20.3124 C   0  0  0  0  0  0  0  0  0  0  0  0
   12.7292   10.9960   18.4597 C   0  0  0  0  0  0  0  0  0  0  0  0
    9.3798    6.6793   23.6625 C   0  0  0  0  0  0  0  0  0  0  0  0
   14.7425   10.0739   19.0802 O   0  0  0  0  0  0  0  0  0  0  0  0
    5.1894    9.4673   20.7118 C   0  0  0  0  0  0  0  0  0  0  0  0
    7.3773    8.8224   21.4870 C   0  0  0  0  0  0  0  0  0  0  0  0
    8.4391    6.6439   21.0235 C   0  0  0  0  0  0  0  0  0  0  0  0
    9.6494   11.1353   20.4167 C   0  0  0  0  0  0  0  0  0  0  0  0
    8.1431    7.6829   21.9046 C   0  0  0  0  0  0  0  0  0  0  0  0
    7.7796   10.1314   21.5115 N   0  0  0  0  0  0  0  0  0  0  0  0
    9.2768    5.6183   21.4437 C   0  0  0  0  0  0  0  0  0  0  0  0
    8.6315    7.7322   23.1768 C   0  0  0  0  0  0  0  0  0  0  0  0
   13.0537    9.9821   20.5781 C   0  0  0  0  0  0  0  0  0  0  0  0
   10.3850    4.6575   23.2386 O   0  0  0  0  0  0  0  0  0  0  0  0
    4.2069    6.8450   20.7994 C   0  0  0  0  0  0  0  0  0  0  0  0
    3.0726   10.1043   19.8522 O   0  0  0  0  0  0  0  0  0  0  0  0
    5.5057    7.1196   21.1155 C   0  0  0  0  0  0  0  0  0  0  0  0
    7.0367   11.0229   21.9948 O   0  0  0  0  0  0  0  0  0  0  0  0
  1  8  4  0
  1 12  4  0
  2  9  1  0
  2 11  4  0
  2 25  4  0
  3 12  4  0
  3 14  1  0
  3 23  4  0
  4 13  4  0
  4 21  4  0
  4 24  1  0
  5  8  4  0
  5 23  4  0
  6 18  2  0
  7 15  4  0
  7 16  1  0
  7 27  4  0
  8 18  1  0
 10 18  1  0
 10 20  1  0
 11 15  4  0
 11 26  1  0
 13 22  4  0
 16 19  1  0
 16 20  2  0
 17 19  4  0
 17 21  4  0
 19 22  4  0
 20 28  1  0
 25 27  4  0
M  END
$$$$

 Created by Python create_sdf_string function

 28 30  0  0  0  0  0  0  0  0999 V2000
   11.4592   11.2893   18.7941 C   0  0  0  0  0  0  0  0  0  0  0  0
    3.4202    7.9009   20.3866 C   0  0  0  0  0  0  0  0  0  0  0  0
   13.5280   10.3522   19.3586 C   0  0  0  0  0  0  0  0  0  0  0  0
    9.6923    5.6468   22.7891 C   0  0  0  0  0  0  0  0  0  0  0  0
   11.7756   10.2554   20.8841 N   0  0  0  0  0  0  0  0  0  0  0  0
    8.9876   11.9370   19.8757 O   0  0  0  0  0  0  0  0  0  0  0  0
    6.0167    8.4478   21.1089 C   0  0  0  0  0  0  0  0  0  0  0  0
   11.0002   10.8890   20.0262 C   0  0  0  0  0  0  0  0  0  0  0  0
    2.1721    7.7393   20.0315 O   0  0  0  0  0  0  0  0  0  0  0  0
    9.1107   10.3880   21.3769 N   0  0  0  0  0  0  0  0  0  0  0  0
    3.9102    9.2008   20.3124 C   0  0  0  0  0  0  0  0  0  0  0  0
   12.7292   10.9960   18.4597 C   0  0  0  0  0  0  0  0  0  0  0  0
    9.3798    6.6793   23.6625 C   0  0  0  0  0  0  0  0  0  0  0  0
   14.7425   10.0739   19.0802 O   0  0  0  0  0  0  0  0  0  0  0  0
    5.1894    9.4673   20.7118 C   0  0  0  0  0  0  0  0  0  0  0  0
    7.3773    8.8224   21.4870 C   0  0  0  0  0  0  0  0  0  0  0  0
    8.4391    6.6439   21.0235 C   0  0  0  0  0  0  0  0  0  0  0  0
    9.6494   11.1353   20.4167 C   0  0  0  0  0  0  0  0  0  0  0  0
    8.1431    7.6829   21.9046 C   0  0  0  0  0  0  0  0  0  0  0  0
    7.7796   10.1314   21.5115 N   0  0  0  0  0  0  0  0  0  0  0  0
    9.2768    5.6183   21.4437 C   0  0  0  0  0  0  0  0  0  0  0  0
    8.6315    7.7322   23.1768 C   0  0  0  0  0  0  0  0  0  0  0  0
   13.0537    9.9821   20.5781 C   0  0  0  0  0  0  0  0  0  0  0  0
   10.3850    4.6575   23.2386 O   0  0  0  0  0  0  0  0  0  0  0  0
    4.2069    6.8450   20.7994 C   0  0  0  0  0  0  0  0  0  0  0  0
    3.0726   10.1043   19.8522 O   0  0  0  0  0  0  0  0  0  0  0  0
    5.5057    7.1196   21.1155 C   0  0  0  0  0  0  0  0  0  0  0  0
    7.0367   11.0229   21.9948 O   0  0  0  0  0  0  0  0  0  0  0  0
  1  8  4  0
  1 12  4  0
  2  9  1  0
  2 11  4  0
  2 25  4  0
  3 12  4  0
  3 14  1  0
  3 23  4  0
  4 13  4  0
  4 21  4  0
  4 24  1  0
  5  8  4  0
  5 23  4  0
  6 18  2  0
  7 15  4  0
  7 16  1  0
  7 27  4  0
  8 18  1  0
 10 18  1  0
 10 20  1  0
 11 15  4  0
 11 26  1  0
 13 22  4  0
 16 19  1  0
 16 20  2  0
 17 19  4  0
 17 21  4  0
 19 22  4  0
 20 28  1  0
 25 27  4  0
M  END
$$$$

 Created by Python create_sdf_string function

 28 30  0  0  0  0  0  0  0  0999 V2000
   11.4592   11.2893   18.7941 C   0  0  0  0  0  0  0  0  0  0  0  0
    3.4202    7.9009   20.3866 C   0  0  0  0  0  0  0  0  0  0  0  0
   13.5280   10.3522   19.3586 C   0  0  0  0  0  0  0  0  0  0  0  0
    9.6923    5.6468   22.7891 C   0  0  0  0  0  0  0  0  0  0  0  0
   11.7756   10.2554   20.8841 N   0  0  0  0  0  0  0  0  0  0  0  0
    8.9876   11.9370   19.8757 O   0  0  0  0  0  0  0  0  0  0  0  0
    6.0167    8.4478   21.1089 C   0  0  0  0  0  0  0  0  0  0  0  0
   11.0002   10.8890   20.0262 C   0  0  0  0  0  0  0  0  0  0  0  0
    2.1721    7.7393   20.0315 O   0  0  0  0  0  0  0  0  0  0  0  0
    9.1107   10.3880   21.3769 N   0  0  0  0  0  0  0  0  0  0  0  0
    3.9102    9.2008   20.3124 C   0  0  0  0  0  0  0  0  0  0  0  0
   12.7292   10.9960   18.4597 C   0  0  0  0  0  0  0  0  0  0  0  0
    9.3798    6.6793   23.6625 C   0  0  0  0  0  0  0  0  0  0  0  0
   14.7425   10.0739   19.0802 O   0  0  0  0  0  0  0  0  0  0  0  0
    5.1894    9.4673   20.7118 C   0  0  0  0  0  0  0  0  0  0  0  0
    7.3773    8.8224   21.4870 C   0  0  0  0  0  0  0  0  0  0  0  0
    8.4391    6.6439   21.0235 C   0  0  0  0  0  0  0  0  0  0  0  0
    9.6494   11.1353   20.4167 C   0  0  0  0  0  0  0  0  0  0  0  0
    8.1431    7.6829   21.9046 C   0  0  0  0  0  0  0  0  0  0  0  0
    7.7796   10.1314   21.5115 N   0  0  0  0  0  0  0  0  0  0  0  0
    9.2768    5.6183   21.4437 C   0  0  0  0  0  0  0  0  0  0  0  0
    8.6315    7.7322   23.1768 C   0  0  0  0  0  0  0  0  0  0  0  0
   13.0537    9.9821   20.5781 C   0  0  0  0  0  0  0  0  0  0  0  0
   10.3850    4.6575   23.2386 O   0  0  0  0  0  0  0  0  0  0  0  0
    4.2069    6.8450   20.7994 C   0  0  0  0  0  0  0  0  0  0  0  0
    3.0726   10.1043   19.8522 O   0  0  0  0  0  0  0  0  0  0  0  0
    5.5057    7.1196   21.1155 C   0  0  0  0  0  0  0  0  0  0  0  0
    7.0367   11.0229   21.9948 O   0  0  0  0  0  0  0  0  0  0  0  0
  1  8  4  0
  1 12  4  0
  2  9  1  0
  2 11  4  0
  2 25  4  0
  3 12  4  0
  3 14  1  0
  3 23  4  0
  4 13  4  0
  4 21  4  0
  4 24  1  0
  5  8  4  0
  5 23  4  0
  6 18  2  0
  7 15  4  0
  7 16  1  0
  7 27  4  0
  8 18  1  0
 10 18  1  0
 10 20  1  0
 11 15  4  0
 11 26  1  0
 13 22  4  0
 16 19  1  0
 16 20  2  0
 17 19  4  0
 17 21  4  0
 19 22  4  0
 20 28  1  0
 25 27  4  0
M  END
$$$$

 Created by Python create_sdf_string function

 28 30  0  0  0  0  0  0  0  0999 V2000
   11.4592   11.2893   18.7941 C   0  0  0  0  0  0  0  0  0  0  0  0
    3.4202    7.9009   20.3866 C   0  0  0  0  0  0  0  0  0  0  0  0
   13.5280   10.3522   19.3586 C   0  0  0  0  0  0  0  0  0  0  0  0
    9.6923    5.6468   22.7891 C   0  0  0  0  0  0  0  0  0  0  0  0
   11.7756   10.2554   20.8841 N   0  0  0  0  0  0  0  0  0  0  0  0
    8.9876   11.9370   19.8757 O   0  0  0  0  0  0  0  0  0  0  0  0
    6.0167    8.4478   21.1089 C   0  0  0  0  0  0  0  0  0  0  0  0
   11.0002   10.8890   20.0262 C   0  0  0  0  0  0  0  0  0  0  0  0
    2.1721    7.7393   20.0315 O   0  0  0  0  0  0  0  0  0  0  0  0
    9.1107   10.3880   21.3769 N   0  0  0  0  0  0  0  0  0  0  0  0
    3.9102    9.2008   20.3124 C   0  0  0  0  0  0  0  0  0  0  0  0
   12.7292   10.9960   18.4597 C   0  0  0  0  0  0  0  0  0  0  0  0
    9.3798    6.6793   23.6625 C   0  0  0  0  0  0  0  0  0  0  0  0
   14.7425   10.0739   19.0802 O   0  0  0  0  0  0  0  0  0  0  0  0
    5.1894    9.4673   20.7118 C   0  0  0  0  0  0  0  0  0  0  0  0
    7.3773    8.8224   21.4870 C   0  0  0  0  0  0  0  0  0  0  0  0
    8.4391    6.6439   21.0235 C   0  0  0  0  0  0  0  0  0  0  0  0
    9.6494   11.1353   20.4167 C   0  0  0  0  0  0  0  0  0  0  0  0
    8.1431    7.6829   21.9046 C   0  0  0  0  0  0  0  0  0  0  0  0
    7.7796   10.1314   21.5115 N   0  0  0  0  0  0  0  0  0  0  0  0
    9.2768    5.6183   21.4437 C   0  0  0  0  0  0  0  0  0  0  0  0
    8.6315    7.7322   23.1768 C   0  0  0  0  0  0  0  0  0  0  0  0
   13.0537    9.9821   20.5781 C   0  0  0  0  0  0  0  0  0  0  0  0
   10.3850    4.6575   23.2386 O   0  0  0  0  0  0  0  0  0  0  0  0
    4.2069    6.8450   20.7994 C   0  0  0  0  0  0  0  0  0  0  0  0
    3.0726   10.1043   19.8522 O   0  0  0  0  0  0  0  0  0  0  0  0
    5.5057    7.1196   21.1155 C   0  0  0  0  0  0  0  0  0  0  0  0
    7.0367   11.0229   21.9948 O   0  0  0  0  0  0  0  0  0  0  0  0
  1  8  4  0
  1 12  4  0
  2  9  1  0
  2 11  4  0
  2 25  4  0
  3 12  4  0
  3 14  1  0
  3 23  4  0
  4 13  4  0
  4 21  4  0
  4 24  1  0
  5  8  4  0
  5 23  4  0
  6 18  2  0
  7 15  4  0
  7 16  1  0
  7 27  4  0
  8 18  1  0
 10 18  1  0
 10 20  1  0
 11 15  4  0
 11 26  1  0
 13 22  4  0
 16 19  1  0
 16 20  2  0
 17 19  4  0
 17 21  4  0
 19 22  4  0
 20 28  1  0
 25 27  4  0
M  END
$$$$

 Created by Python create_sdf_string function

 28 30  0  0  0  0  0  0  0  0999 V2000
   11.4592   11.2893   18.7941 C   0  0  0  0  0  0  0  0  0  0  0  0
    3.4202    7.9009   20.3866 C   0  0  0  0  0  0  0  0  0  0  0  0
   13.5280   10.3522   19.3586 C   0  0  0  0  0  0  0  0  0  0  0  0
    9.6923    5.6468   22.7891 C   0  0  0  0  0  0  0  0  0  0  0  0
   11.7756   10.2554   20.8841 N   0  0  0  0  0  0  0  0  0  0  0  0
    8.9876   11.9370   19.8757 O   0  0  0  0  0  0  0  0  0  0  0  0
    6.0167    8.4478   21.1089 C   0  0  0  0  0  0  0  0  0  0  0  0
   11.0002   10.8890   20.0262 C   0  0  0  0  0  0  0  0  0  0  0  0
    2.1721    7.7393   20.0315 O   0  0  0  0  0  0  0  0  0  0  0  0
    9.1107   10.3880   21.3769 N   0  0  0  0  0  0  0  0  0  0  0  0
    3.9102    9.2008   20.3124 C   0  0  0  0  0  0  0  0  0  0  0  0
   12.7292   10.9960   18.4597 C   0  0  0  0  0  0  0  0  0  0  0  0
    9.3798    6.6793   23.6625 C   0  0  0  0  0  0  0  0  0  0  0  0
   14.7425   10.0739   19.0802 O   0  0  0  0  0  0  0  0  0  0  0  0
    5.1894    9.4673   20.7118 C   0  0  0  0  0  0  0  0  0  0  0  0
    7.3773    8.8224   21.4870 C   0  0  0  0  0  0  0  0  0  0  0  0
    8.4391    6.6439   21.0235 C   0  0  0  0  0  0  0  0  0  0  0  0
    9.6494   11.1353   20.4167 C   0  0  0  0  0  0  0  0  0  0  0  0
    8.1431    7.6829   21.9046 C   0  0  0  0  0  0  0  0  0  0  0  0
    7.7796   10.1314   21.5115 N   0  0  0  0  0  0  0  0  0  0  0  0
    9.2768    5.6183   21.4437 C   0  0  0  0  0  0  0  0  0  0  0  0
    8.6315    7.7322   23.1768 C   0  0  0  0  0  0  0  0  0  0  0  0
   13.0537    9.9821   20.5781 C   0  0  0  0  0  0  0  0  0  0  0  0
   10.3850    4.6575   23.2386 O   0  0  0  0  0  0  0  0  0  0  0  0
    4.2069    6.8450   20.7994 C   0  0  0  0  0  0  0  0  0  0  0  0
    3.0726   10.1043   19.8522 O   0  0  0  0  0  0  0  0  0  0  0  0
    5.5057    7.1196   21.1155 C   0  0  0  0  0  0  0  0  0  0  0  0
    7.0367   11.0229   21.9948 O   0  0  0  0  0  0  0  0  0  0  0  0
  1  8  4  0
  1 12  4  0
  2  9  1  0
  2 11  4  0
  2 25  4  0
  3 12  4  0
  3 14  1  0
  3 23  4  0
  4 13  4  0
  4 21  4  0
  4 24  1  0
  5  8  4  0
  5 23  4  0
  6 18  2  0
  7 15  4  0
  7 16  1  0
  7 27  4  0
  8 18  1  0
 10 18  1  0
 10 20  1  0
 11 15  4  0
 11 26  1  0
 13 22  4  0
 16 19  1  0
 16 20  2  0
 17 19  4  0
 17 21  4  0
 19 22  4  0
 20 28  1  0
 25 27  4  0
M  END
$$$$

 Created by Python create_sdf_string function

 28 30  0  0  0  0  0  0  0  0999 V2000
   11.4592   11.2893   18.7941 C   0  0  0  0  0  0  0  0  0  0  0  0
    3.4202    7.9009   20.3866 C   0  0  0  0  0  0  0  0  0  0  0  0
   13.5280   10.3522   19.3586 C   0  0  0  0  0  0  0  0  0  0  0  0
    9.6923    5.6468   22.7891 C   0  0  0  0  0  0  0  0  0  0  0  0
   11.7756   10.2554   20.8841 N   0  0  0  0  0  0  0  0  0  0  0  0
    8.9876   11.9370   19.8757 O   0  0  0  0  0  0  0  0  0  0  0  0
    6.0167    8.4478   21.1089 C   0  0  0  0  0  0  0  0  0  0  0  0
   11.0002   10.8890   20.0262 C   0  0  0  0  0  0  0  0  0  0  0  0
    2.1721    7.7393   20.0315 O   0  0  0  0  0  0  0  0  0  0  0  0
    9.1107   10.3880   21.3769 N   0  0  0  0  0  0  0  0  0  0  0  0
    3.9102    9.2008   20.3124 C   0  0  0  0  0  0  0  0  0  0  0  0
   12.7292   10.9960   18.4597 C   0  0  0  0  0  0  0  0  0  0  0  0
    9.3798    6.6793   23.6625 C   0  0  0  0  0  0  0  0  0  0  0  0
   14.7425   10.0739   19.0802 O   0  0  0  0  0  0  0  0  0  0  0  0
    5.1894    9.4673   20.7118 C   0  0  0  0  0  0  0  0  0  0  0  0
    7.3773    8.8224   21.4870 C   0  0  0  0  0  0  0  0  0  0  0  0
    8.4391    6.6439   21.0235 C   0  0  0  0  0  0  0  0  0  0  0  0
    9.6494   11.1353   20.4167 C   0  0  0  0  0  0  0  0  0  0  0  0
    8.1431    7.6829   21.9046 C   0  0  0  0  0  0  0  0  0  0  0  0
    7.7796   10.1314   21.5115 N   0  0  0  0  0  0  0  0  0  0  0  0
    9.2768    5.6183   21.4437 C   0  0  0  0  0  0  0  0  0  0  0  0
    8.6315    7.7322   23.1768 C   0  0  0  0  0  0  0  0  0  0  0  0
   13.0537    9.9821   20.5781 C   0  0  0  0  0  0  0  0  0  0  0  0
   10.3850    4.6575   23.2386 O   0  0  0  0  0  0  0  0  0  0  0  0
    4.2069    6.8450   20.7994 C   0  0  0  0  0  0  0  0  0  0  0  0
    3.0726   10.1043   19.8522 O   0  0  0  0  0  0  0  0  0  0  0  0
    5.5057    7.1196   21.1155 C   0  0  0  0  0  0  0  0  0  0  0  0
    7.0367   11.0229   21.9948 O   0  0  0  0  0  0  0  0  0  0  0  0
  1  8  4  0
  1 12  4  0
  2  9  1  0
  2 11  4  0
  2 25  4  0
  3 12  4  0
  3 14  1  0
  3 23  4  0
  4 13  4  0
  4 21  4  0
  4 24  1  0
  5  8  4  0
  5 23  4  0
  6 18  2  0
  7 15  4  0
  7 16  1  0
  7 27  4  0
  8 18  1  0
 10 18  1  0
 10 20  1  0
 11 15  4  0
 11 26  1  0
 13 22  4  0
 16 19  1  0
 16 20  2  0
 17 19  4  0
 17 21  4  0
 19 22  4  0
 20 28  1  0
 25 27  4  0
M  END
$$$$

 Created by Python create_sdf_string function

 28 30  0  0  0  0  0  0  0  0999 V2000
   11.4592   11.2893   18.7941 C   0  0  0  0  0  0  0  0  0  0  0  0
    3.4202    7.9009   20.3866 C   0  0  0  0  0  0  0  0  0  0  0  0
   13.5280   10.3522   19.3586 C   0  0  0  0  0  0  0  0  0  0  0  0
    9.6923    5.6468   22.7891 C   0  0  0  0  0  0  0  0  0  0  0  0
   11.7756   10.2554   20.8841 N   0  0  0  0  0  0  0  0  0  0  0  0
    8.9876   11.9370   19.8757 O   0  0  0  0  0  0  0  0  0  0  0  0
    6.0167    8.4478   21.1089 C   0  0  0  0  0  0  0  0  0  0  0  0
   11.0002   10.8890   20.0262 C   0  0  0  0  0  0  0  0  0  0  0  0
    2.1721    7.7393   20.0315 O   0  0  0  0  0  0  0  0  0  0  0  0
    9.1107   10.3880   21.3769 N   0  0  0  0  0  0  0  0  0  0  0  0
    3.9102    9.2008   20.3124 C   0  0  0  0  0  0  0  0  0  0  0  0
   12.7292   10.9960   18.4597 C   0  0  0  0  0  0  0  0  0  0  0  0
    9.3798    6.6793   23.6625 C   0  0  0  0  0  0  0  0  0  0  0  0
   14.7425   10.0739   19.0802 O   0  0  0  0  0  0  0  0  0  0  0  0
    5.1894    9.4673   20.7118 C   0  0  0  0  0  0  0  0  0  0  0  0
    7.3773    8.8224   21.4870 C   0  0  0  0  0  0  0  0  0  0  0  0
    8.4391    6.6439   21.0235 C   0  0  0  0  0  0  0  0  0  0  0  0
    9.6494   11.1353   20.4167 C   0  0  0  0  0  0  0  0  0  0  0  0
    8.1431    7.6829   21.9046 C   0  0  0  0  0  0  0  0  0  0  0  0
    7.7796   10.1314   21.5115 N   0  0  0  0  0  0  0  0  0  0  0  0
    9.2768    5.6183   21.4437 C   0  0  0  0  0  0  0  0  0  0  0  0
    8.6315    7.7322   23.1768 C   0  0  0  0  0  0  0  0  0  0  0  0
   13.0537    9.9821   20.5781 C   0  0  0  0  0  0  0  0  0  0  0  0
   10.3850    4.6575   23.2386 O   0  0  0  0  0  0  0  0  0  0  0  0
    4.2069    6.8450   20.7994 C   0  0  0  0  0  0  0  0  0  0  0  0
    3.0726   10.1043   19.8522 O   0  0  0  0  0  0  0  0  0  0  0  0
    5.5057    7.1196   21.1155 C   0  0  0  0  0  0  0  0  0  0  0  0
    7.0367   11.0229   21.9948 O   0  0  0  0  0  0  0  0  0  0  0  0
  1  8  4  0
  1 12  4  0
  2  9  1  0
  2 11  4  0
  2 25  4  0
  3 12  4  0
  3 14  1  0
  3 23  4  0
  4 13  4  0
  4 21  4  0
  4 24  1  0
  5  8  4  0
  5 23  4  0
  6 18  2  0
  7 15  4  0
  7 16  1  0
  7 27  4  0
  8 18  1  0
 10 18  1  0
 10 20  1  0
 11 15  4  0
 11 26  1  0
 13 22  4  0
 16 19  1  0
 16 20  2  0
 17 19  4  0
 17 21  4  0
 19 22  4  0
 20 28  1  0
 25 27  4  0
M  END
$$$$

 Created by Python create_sdf_string function

 28 30  0  0  0  0  0  0  0  0999 V2000
   11.4592   11.2893   18.7941 C   0  0  0  0  0  0  0  0  0  0  0  0
    3.4202    7.9009   20.3866 C   0  0  0  0  0  0  0  0  0  0  0  0
   13.5280   10.3522   19.3586 C   0  0  0  0  0  0  0  0  0  0  0  0
    9.6923    5.6468   22.7891 C   0  0  0  0  0  0  0  0  0  0  0  0
   11.7756   10.2554   20.8841 N   0  0  0  0  0  0  0  0  0  0  0  0
    8.9876   11.9370   19.8757 O   0  0  0  0  0  0  0  0  0  0  0  0
    6.0167    8.4478   21.1089 C   0  0  0  0  0  0  0  0  0  0  0  0
   11.0002   10.8890   20.0262 C   0  0  0  0  0  0  0  0  0  0  0  0
    2.1721    7.7393   20.0315 O   0  0  0  0  0  0  0  0  0  0  0  0
    9.1107   10.3880   21.3769 N   0  0  0  0  0  0  0  0  0  0  0  0
    3.9102    9.2008   20.3124 C   0  0  0  0  0  0  0  0  0  0  0  0
   12.7292   10.9960   18.4597 C   0  0  0  0  0  0  0  0  0  0  0  0
    9.3798    6.6793   23.6625 C   0  0  0  0  0  0  0  0  0  0  0  0
   14.7425   10.0739   19.0802 O   0  0  0  0  0  0  0  0  0  0  0  0
    5.1894    9.4673   20.7118 C   0  0  0  0  0  0  0  0  0  0  0  0
    7.3773    8.8224   21.4870 C   0  0  0  0  0  0  0  0  0  0  0  0
    8.4391    6.6439   21.0235 C   0  0  0  0  0  0  0  0  0  0  0  0
    9.6494   11.1353   20.4167 C   0  0  0  0  0  0  0  0  0  0  0  0
    8.1431    7.6829   21.9046 C   0  0  0  0  0  0  0  0  0  0  0  0
    7.7796   10.1314   21.5115 N   0  0  0  0  0  0  0  0  0  0  0  0
    9.2768    5.6183   21.4437 C   0  0  0  0  0  0  0  0  0  0  0  0
    8.6315    7.7322   23.1768 C   0  0  0  0  0  0  0  0  0  0  0  0
   13.0537    9.9821   20.5781 C   0  0  0  0  0  0  0  0  0  0  0  0
   10.3850    4.6575   23.2386 O   0  0  0  0  0  0  0  0  0  0  0  0
    4.2069    6.8450   20.7994 C   0  0  0  0  0  0  0  0  0  0  0  0
    3.0726   10.1043   19.8522 O   0  0  0  0  0  0  0  0  0  0  0  0
    5.5057    7.1196   21.1155 C   0  0  0  0  0  0  0  0  0  0  0  0
    7.0367   11.0229   21.9948 O   0  0  0  0  0  0  0  0  0  0  0  0
  1  8  4  0
  1 12  4  0
  2  9  1  0
  2 11  4  0
  2 25  4  0
  3 12  4  0
  3 14  1  0
  3 23  4  0
  4 13  4  0
  4 21  4  0
  4 24  1  0
  5  8  4  0
  5 23  4  0
  6 18  2  0
  7 15  4  0
  7 16  1  0
  7 27  4  0
  8 18  1  0
 10 18  1  0
 10 20  1  0
 11 15  4  0
 11 26  1  0
 13 22  4  0
 16 19  1  0
 16 20  2  0
 17 19  4  0
 17 21  4  0
 19 22  4  0
 20 28  1  0
 25 27  4  0
M  END
$$$$

 Created by Python create_sdf_string function

 28 30  0  0  0  0  0  0  0  0999 V2000
   11.4592   11.2893   18.7941 C   0  0  0  0  0  0  0  0  0  0  0  0
    3.4202    7.9009   20.3866 C   0  0  0  0  0  0  0  0  0  0  0  0
   13.5280   10.3522   19.3586 C   0  0  0  0  0  0  0  0  0  0  0  0
    9.6923    5.6468   22.7891 C   0  0  0  0  0  0  0  0  0  0  0  0
   11.7756   10.2554   20.8841 N   0  0  0  0  0  0  0  0  0  0  0  0
    8.9876   11.9370   19.8757 O   0  0  0  0  0  0  0  0  0  0  0  0
    6.0167    8.4478   21.1089 C   0  0  0  0  0  0  0  0  0  0  0  0
   11.0002   10.8890   20.0262 C   0  0  0  0  0  0  0  0  0  0  0  0
    2.1721    7.7393   20.0315 O   0  0  0  0  0  0  0  0  0  0  0  0
    9.1107   10.3880   21.3769 N   0  0  0  0  0  0  0  0  0  0  0  0
    3.9102    9.2008   20.3124 C   0  0  0  0  0  0  0  0  0  0  0  0
   12.7292   10.9960   18.4597 C   0  0  0  0  0  0  0  0  0  0  0  0
    9.3798    6.6793   23.6625 C   0  0  0  0  0  0  0  0  0  0  0  0
   14.7425   10.0739   19.0802 O   0  0  0  0  0  0  0  0  0  0  0  0
    5.1894    9.4673   20.7118 C   0  0  0  0  0  0  0  0  0  0  0  0
    7.3773    8.8224   21.4870 C   0  0  0  0  0  0  0  0  0  0  0  0
    8.4391    6.6439   21.0235 C   0  0  0  0  0  0  0  0  0  0  0  0
    9.6494   11.1353   20.4167 C   0  0  0  0  0  0  0  0  0  0  0  0
    8.1431    7.6829   21.9046 C   0  0  0  0  0  0  0  0  0  0  0  0
    7.7796   10.1314   21.5115 N   0  0  0  0  0  0  0  0  0  0  0  0
    9.2768    5.6183   21.4437 C   0  0  0  0  0  0  0  0  0  0  0  0
    8.6315    7.7322   23.1768 C   0  0  0  0  0  0  0  0  0  0  0  0
   13.0537    9.9821   20.5781 C   0  0  0  0  0  0  0  0  0  0  0  0
   10.3850    4.6575   23.2386 O   0  0  0  0  0  0  0  0  0  0  0  0
    4.2069    6.8450   20.7994 C   0  0  0  0  0  0  0  0  0  0  0  0
    3.0726   10.1043   19.8522 O   0  0  0  0  0  0  0  0  0  0  0  0
    5.5057    7.1196   21.1155 C   0  0  0  0  0  0  0  0  0  0  0  0
    7.0367   11.0229   21.9948 O   0  0  0  0  0  0  0  0  0  0  0  0
  1  8  4  0
  1 12  4  0
  2  9  1  0
  2 11  4  0
  2 25  4  0
  3 12  4  0
  3 14  1  0
  3 23  4  0
  4 13  4  0
  4 21  4  0
  4 24  1  0
  5  8  4  0
  5 23  4  0
  6 18  2  0
  7 15  4  0
  7 16  1  0
  7 27  4  0
  8 18  1  0
 10 18  1  0
 10 20  1  0
 11 15  4  0
 11 26  1  0
 13 22  4  0
 16 19  1  0
 16 20  2  0
 17 19  4  0
 17 21  4  0
 19 22  4  0
 20 28  1  0
 25 27  4  0
M  END
$$$$

 Created by Python create_sdf_string function

 28 30  0  0  0  0  0  0  0  0999 V2000
   11.4592   11.2893   18.7941 C   0  0  0  0  0  0  0  0  0  0  0  0
    3.4202    7.9009   20.3866 C   0  0  0  0  0  0  0  0  0  0  0  0
   13.5280   10.3522   19.3586 C   0  0  0  0  0  0  0  0  0  0  0  0
    9.6923    5.6468   22.7891 C   0  0  0  0  0  0  0  0  0  0  0  0
   11.7756   10.2554   20.8841 N   0  0  0  0  0  0  0  0  0  0  0  0
    8.9876   11.9370   19.8757 O   0  0  0  0  0  0  0  0  0  0  0  0
    6.0167    8.4478   21.1089 C   0  0  0  0  0  0  0  0  0  0  0  0
   11.0002   10.8890   20.0262 C   0  0  0  0  0  0  0  0  0  0  0  0
    2.1721    7.7393   20.0315 O   0  0  0  0  0  0  0  0  0  0  0  0
    9.1107   10.3880   21.3769 N   0  0  0  0  0  0  0  0  0  0  0  0
    3.9102    9.2008   20.3124 C   0  0  0  0  0  0  0  0  0  0  0  0
   12.7292   10.9960   18.4597 C   0  0  0  0  0  0  0  0  0  0  0  0
    9.3798    6.6793   23.6625 C   0  0  0  0  0  0  0  0  0  0  0  0
   14.7425   10.0739   19.0802 O   0  0  0  0  0  0  0  0  0  0  0  0
    5.1894    9.4673   20.7118 C   0  0  0  0  0  0  0  0  0  0  0  0
    7.3773    8.8224   21.4870 C   0  0  0  0  0  0  0  0  0  0  0  0
    8.4391    6.6439   21.0235 C   0  0  0  0  0  0  0  0  0  0  0  0
    9.6494   11.1353   20.4167 C   0  0  0  0  0  0  0  0  0  0  0  0
    8.1431    7.6829   21.9046 C   0  0  0  0  0  0  0  0  0  0  0  0
    7.7796   10.1314   21.5115 N   0  0  0  0  0  0  0  0  0  0  0  0
    9.2768    5.6183   21.4437 C   0  0  0  0  0  0  0  0  0  0  0  0
    8.6315    7.7322   23.1768 C   0  0  0  0  0  0  0  0  0  0  0  0
   13.0537    9.9821   20.5781 C   0  0  0  0  0  0  0  0  0  0  0  0
   10.3850    4.6575   23.2386 O   0  0  0  0  0  0  0  0  0  0  0  0
    4.2069    6.8450   20.7994 C   0  0  0  0  0  0  0  0  0  0  0  0
    3.0726   10.1043   19.8522 O   0  0  0  0  0  0  0  0  0  0  0  0
    5.5057    7.1196   21.1155 C   0  0  0  0  0  0  0  0  0  0  0  0
    7.0367   11.0229   21.9948 O   0  0  0  0  0  0  0  0  0  0  0  0
  1  8  4  0
  1 12  4  0
  2  9  1  0
  2 11  4  0
  2 25  4  0
  3 12  4  0
  3 14  1  0
  3 23  4  0
  4 13  4  0
  4 21  4  0
  4 24  1  0
  5  8  4  0
  5 23  4  0
  6 18  2  0
  7 15  4  0
  7 16  1  0
  7 27  4  0
  8 18  1  0
 10 18  1  0
 10 20  1  0
 11 15  4  0
 11 26  1  0
 13 22  4  0
 16 19  1  0
 16 20  2  0
 17 19  4  0
 17 21  4  0
 19 22  4  0
 20 28  1  0
 25 27  4  0
M  END
$$$$

 Created by Python create_sdf_string function

 28 30  0  0  0  0  0  0  0  0999 V2000
   11.4592   11.2893   18.7941 C   0  0  0  0  0  0  0  0  0  0  0  0
    3.4202    7.9009   20.3866 C   0  0  0  0  0  0  0  0  0  0  0  0
   13.5280   10.3522   19.3586 C   0  0  0  0  0  0  0  0  0  0  0  0
    9.6923    5.6468   22.7891 C   0  0  0  0  0  0  0  0  0  0  0  0
   11.7756   10.2554   20.8841 N   0  0  0  0  0  0  0  0  0  0  0  0
    8.9876   11.9370   19.8757 O   0  0  0  0  0  0  0  0  0  0  0  0
    6.0167    8.4478   21.1089 C   0  0  0  0  0  0  0  0  0  0  0  0
   11.0002   10.8890   20.0262 C   0  0  0  0  0  0  0  0  0  0  0  0
    2.1721    7.7393   20.0315 O   0  0  0  0  0  0  0  0  0  0  0  0
    9.1107   10.3880   21.3769 N   0  0  0  0  0  0  0  0  0  0  0  0
    3.9102    9.2008   20.3124 C   0  0  0  0  0  0  0  0  0  0  0  0
   12.7292   10.9960   18.4597 C   0  0  0  0  0  0  0  0  0  0  0  0
    9.3798    6.6793   23.6625 C   0  0  0  0  0  0  0  0  0  0  0  0
   14.7425   10.0739   19.0802 O   0  0  0  0  0  0  0  0  0  0  0  0
    5.1894    9.4673   20.7118 C   0  0  0  0  0  0  0  0  0  0  0  0
    7.3773    8.8224   21.4870 C   0  0  0  0  0  0  0  0  0  0  0  0
    8.4391    6.6439   21.0235 C   0  0  0  0  0  0  0  0  0  0  0  0
    9.6494   11.1353   20.4167 C   0  0  0  0  0  0  0  0  0  0  0  0
    8.1431    7.6829   21.9046 C   0  0  0  0  0  0  0  0  0  0  0  0
    7.7796   10.1314   21.5115 N   0  0  0  0  0  0  0  0  0  0  0  0
    9.2768    5.6183   21.4437 C   0  0  0  0  0  0  0  0  0  0  0  0
    8.6315    7.7322   23.1768 C   0  0  0  0  0  0  0  0  0  0  0  0
   13.0537    9.9821   20.5781 C   0  0  0  0  0  0  0  0  0  0  0  0
   10.3850    4.6575   23.2386 O   0  0  0  0  0  0  0  0  0  0  0  0
    4.2069    6.8450   20.7994 C   0  0  0  0  0  0  0  0  0  0  0  0
    3.0726   10.1043   19.8522 O   0  0  0  0  0  0  0  0  0  0  0  0
    5.5057    7.1196   21.1155 C   0  0  0  0  0  0  0  0  0  0  0  0
    7.0367   11.0229   21.9948 O   0  0  0  0  0  0  0  0  0  0  0  0
  1  8  4  0
  1 12  4  0
  2  9  1  0
  2 11  4  0
  2 25  4  0
  3 12  4  0
  3 14  1  0
  3 23  4  0
  4 13  4  0
  4 21  4  0
  4 24  1  0
  5  8  4  0
  5 23  4  0
  6 18  2  0
  7 15  4  0
  7 16  1  0
  7 27  4  0
  8 18  1  0
 10 18  1  0
 10 20  1  0
 11 15  4  0
 11 26  1  0
 13 22  4  0
 16 19  1  0
 16 20  2  0
 17 19  4  0
 17 21  4  0
 19 22  4  0
 20 28  1  0
 25 27  4  0
M  END
$$$$

 Created by Python create_sdf_string function

 28 30  0  0  0  0  0  0  0  0999 V2000
   11.4592   11.2893   18.7941 C   0  0  0  0  0  0  0  0  0  0  0  0
    3.4202    7.9009   20.3866 C   0  0  0  0  0  0  0  0  0  0  0  0
   13.5280   10.3522   19.3586 C   0  0  0  0  0  0  0  0  0  0  0  0
    9.6923    5.6468   22.7891 C   0  0  0  0  0  0  0  0  0  0  0  0
   11.7756   10.2554   20.8841 N   0  0  0  0  0  0  0  0  0  0  0  0
    8.9876   11.9370   19.8757 O   0  0  0  0  0  0  0  0  0  0  0  0
    6.0167    8.4478   21.1089 C   0  0  0  0  0  0  0  0  0  0  0  0
   11.0002   10.8890   20.0262 C   0  0  0  0  0  0  0  0  0  0  0  0
    2.1721    7.7393   20.0315 O   0  0  0  0  0  0  0  0  0  0  0  0
    9.1107   10.3880   21.3769 N   0  0  0  0  0  0  0  0  0  0  0  0
    3.9102    9.2008   20.3124 C   0  0  0  0  0  0  0  0  0  0  0  0
   12.7292   10.9960   18.4597 C   0  0  0  0  0  0  0  0  0  0  0  0
    9.3798    6.6793   23.6625 C   0  0  0  0  0  0  0  0  0  0  0  0
   14.7425   10.0739   19.0802 O   0  0  0  0  0  0  0  0  0  0  0  0
    5.1894    9.4673   20.7118 C   0  0  0  0  0  0  0  0  0  0  0  0
    7.3773    8.8224   21.4870 C   0  0  0  0  0  0  0  0  0  0  0  0
    8.4391    6.6439   21.0235 C   0  0  0  0  0  0  0  0  0  0  0  0
    9.6494   11.1353   20.4167 C   0  0  0  0  0  0  0  0  0  0  0  0
    8.1431    7.6829   21.9046 C   0  0  0  0  0  0  0  0  0  0  0  0
    7.7796   10.1314   21.5115 N   0  0  0  0  0  0  0  0  0  0  0  0
    9.2768    5.6183   21.4437 C   0  0  0  0  0  0  0  0  0  0  0  0
    8.6315    7.7322   23.1768 C   0  0  0  0  0  0  0  0  0  0  0  0
   13.0537    9.9821   20.5781 C   0  0  0  0  0  0  0  0  0  0  0  0
   10.3850    4.6575   23.2386 O   0  0  0  0  0  0  0  0  0  0  0  0
    4.2069    6.8450   20.7994 C   0  0  0  0  0  0  0  0  0  0  0  0
    3.0726   10.1043   19.8522 O   0  0  0  0  0  0  0  0  0  0  0  0
    5.5057    7.1196   21.1155 C   0  0  0  0  0  0  0  0  0  0  0  0
    7.0367   11.0229   21.9948 O   0  0  0  0  0  0  0  0  0  0  0  0
  1  8  4  0
  1 12  4  0
  2  9  1  0
  2 11  4  0
  2 25  4  0
  3 12  4  0
  3 14  1  0
  3 23  4  0
  4 13  4  0
  4 21  4  0
  4 24  1  0
  5  8  4  0
  5 23  4  0
  6 18  2  0
  7 15  4  0
  7 16  1  0
  7 27  4  0
  8 18  1  0
 10 18  1  0
 10 20  1  0
 11 15  4  0
 11 26  1  0
 13 22  4  0
 16 19  1  0
 16 20  2  0
 17 19  4  0
 17 21  4  0
 19 22  4  0
 20 28  1  0
 25 27  4  0
M  END
$$$$

 Created by Python create_sdf_string function

 28 30  0  0  0  0  0  0  0  0999 V2000
   11.4592   11.2893   18.7941 C   0  0  0  0  0  0  0  0  0  0  0  0
    3.4202    7.9009   20.3866 C   0  0  0  0  0  0  0  0  0  0  0  0
   13.5280   10.3522   19.3586 C   0  0  0  0  0  0  0  0  0  0  0  0
    9.6923    5.6468   22.7891 C   0  0  0  0  0  0  0  0  0  0  0  0
   11.7756   10.2554   20.8841 N   0  0  0  0  0  0  0  0  0  0  0  0
    8.9876   11.9370   19.8757 O   0  0  0  0  0  0  0  0  0  0  0  0
    6.0167    8.4478   21.1089 C   0  0  0  0  0  0  0  0  0  0  0  0
   11.0002   10.8890   20.0262 C   0  0  0  0  0  0  0  0  0  0  0  0
    2.1721    7.7393   20.0315 O   0  0  0  0  0  0  0  0  0  0  0  0
    9.1107   10.3880   21.3769 N   0  0  0  0  0  0  0  0  0  0  0  0
    3.9102    9.2008   20.3124 C   0  0  0  0  0  0  0  0  0  0  0  0
   12.7292   10.9960   18.4597 C   0  0  0  0  0  0  0  0  0  0  0  0
    9.3798    6.6793   23.6625 C   0  0  0  0  0  0  0  0  0  0  0  0
   14.7425   10.0739   19.0802 O   0  0  0  0  0  0  0  0  0  0  0  0
    5.1894    9.4673   20.7118 C   0  0  0  0  0  0  0  0  0  0  0  0
    7.3773    8.8224   21.4870 C   0  0  0  0  0  0  0  0  0  0  0  0
    8.4391    6.6439   21.0235 C   0  0  0  0  0  0  0  0  0  0  0  0
    9.6494   11.1353   20.4167 C   0  0  0  0  0  0  0  0  0  0  0  0
    8.1431    7.6829   21.9046 C   0  0  0  0  0  0  0  0  0  0  0  0
    7.7796   10.1314   21.5115 N   0  0  0  0  0  0  0  0  0  0  0  0
    9.2768    5.6183   21.4437 C   0  0  0  0  0  0  0  0  0  0  0  0
    8.6315    7.7322   23.1768 C   0  0  0  0  0  0  0  0  0  0  0  0
   13.0537    9.9821   20.5781 C   0  0  0  0  0  0  0  0  0  0  0  0
   10.3850    4.6575   23.2386 O   0  0  0  0  0  0  0  0  0  0  0  0
    4.2069    6.8450   20.7994 C   0  0  0  0  0  0  0  0  0  0  0  0
    3.0726   10.1043   19.8522 O   0  0  0  0  0  0  0  0  0  0  0  0
    5.5057    7.1196   21.1155 C   0  0  0  0  0  0  0  0  0  0  0  0
    7.0367   11.0229   21.9948 O   0  0  0  0  0  0  0  0  0  0  0  0
  1  8  4  0
  1 12  4  0
  2  9  1  0
  2 11  4  0
  2 25  4  0
  3 12  4  0
  3 14  1  0
  3 23  4  0
  4 13  4  0
  4 21  4  0
  4 24  1  0
  5  8  4  0
  5 23  4  0
  6 18  2  0
  7 15  4  0
  7 16  1  0
  7 27  4  0
  8 18  1  0
 10 18  1  0
 10 20  1  0
 11 15  4  0
 11 26  1  0
 13 22  4  0
 16 19  1  0
 16 20  2  0
 17 19  4  0
 17 21  4  0
 19 22  4  0
 20 28  1  0
 25 27  4  0
M  END
$$$$

 Created by Python create_sdf_string function

 28 30  0  0  0  0  0  0  0  0999 V2000
   11.4592   11.2893   18.7941 C   0  0  0  0  0  0  0  0  0  0  0  0
    3.4202    7.9009   20.3866 C   0  0  0  0  0  0  0  0  0  0  0  0
   13.5280   10.3522   19.3586 C   0  0  0  0  0  0  0  0  0  0  0  0
    9.6923    5.6468   22.7891 C   0  0  0  0  0  0  0  0  0  0  0  0
   11.7756   10.2554   20.8841 N   0  0  0  0  0  0  0  0  0  0  0  0
    8.9876   11.9370   19.8757 O   0  0  0  0  0  0  0  0  0  0  0  0
    6.0167    8.4478   21.1089 C   0  0  0  0  0  0  0  0  0  0  0  0
   11.0002   10.8890   20.0262 C   0  0  0  0  0  0  0  0  0  0  0  0
    2.1721    7.7393   20.0315 O   0  0  0  0  0  0  0  0  0  0  0  0
    9.1107   10.3880   21.3769 N   0  0  0  0  0  0  0  0  0  0  0  0
    3.9102    9.2008   20.3124 C   0  0  0  0  0  0  0  0  0  0  0  0
   12.7292   10.9960   18.4597 C   0  0  0  0  0  0  0  0  0  0  0  0
    9.3798    6.6793   23.6625 C   0  0  0  0  0  0  0  0  0  0  0  0
   14.7425   10.0739   19.0802 O   0  0  0  0  0  0  0  0  0  0  0  0
    5.1894    9.4673   20.7118 C   0  0  0  0  0  0  0  0  0  0  0  0
    7.3773    8.8224   21.4870 C   0  0  0  0  0  0  0  0  0  0  0  0
    8.4391    6.6439   21.0235 C   0  0  0  0  0  0  0  0  0  0  0  0
    9.6494   11.1353   20.4167 C   0  0  0  0  0  0  0  0  0  0  0  0
    8.1431    7.6829   21.9046 C   0  0  0  0  0  0  0  0  0  0  0  0
    7.7796   10.1314   21.5115 N   0  0  0  0  0  0  0  0  0  0  0  0
    9.2768    5.6183   21.4437 C   0  0  0  0  0  0  0  0  0  0  0  0
    8.6315    7.7322   23.1768 C   0  0  0  0  0  0  0  0  0  0  0  0
   13.0537    9.9821   20.5781 C   0  0  0  0  0  0  0  0  0  0  0  0
   10.3850    4.6575   23.2386 O   0  0  0  0  0  0  0  0  0  0  0  0
    4.2069    6.8450   20.7994 C   0  0  0  0  0  0  0  0  0  0  0  0
    3.0726   10.1043   19.8522 O   0  0  0  0  0  0  0  0  0  0  0  0
    5.5057    7.1196   21.1155 C   0  0  0  0  0  0  0  0  0  0  0  0
    7.0367   11.0229   21.9948 O   0  0  0  0  0  0  0  0  0  0  0  0
  1  8  4  0
  1 12  4  0
  2  9  1  0
  2 11  4  0
  2 25  4  0
  3 12  4  0
  3 14  1  0
  3 23  4  0
  4 13  4  0
  4 21  4  0
  4 24  1  0
  5  8  4  0
  5 23  4  0
  6 18  2  0
  7 15  4  0
  7 16  1  0
  7 27  4  0
  8 18  1  0
 10 18  1  0
 10 20  1  0
 11 15  4  0
 11 26  1  0
 13 22  4  0
 16 19  1  0
 16 20  2  0
 17 19  4  0
 17 21  4  0
 19 22  4  0
 20 28  1  0
 25 27  4  0
M  END
$$$$

 Created by Python create_sdf_string function

 28 30  0  0  0  0  0  0  0  0999 V2000
   11.4592   11.2893   18.7941 C   0  0  0  0  0  0  0  0  0  0  0  0
    3.4202    7.9009   20.3866 C   0  0  0  0  0  0  0  0  0  0  0  0
   13.5280   10.3522   19.3586 C   0  0  0  0  0  0  0  0  0  0  0  0
    9.6923    5.6468   22.7891 C   0  0  0  0  0  0  0  0  0  0  0  0
   11.7756   10.2554   20.8841 N   0  0  0  0  0  0  0  0  0  0  0  0
    8.9876   11.9370   19.8757 O   0  0  0  0  0  0  0  0  0  0  0  0
    6.0167    8.4478   21.1089 C   0  0  0  0  0  0  0  0  0  0  0  0
   11.0002   10.8890   20.0262 C   0  0  0  0  0  0  0  0  0  0  0  0
    2.1721    7.7393   20.0315 O   0  0  0  0  0  0  0  0  0  0  0  0
    9.1107   10.3880   21.3769 N   0  0  0  0  0  0  0  0  0  0  0  0
    3.9102    9.2008   20.3124 C   0  0  0  0  0  0  0  0  0  0  0  0
   12.7292   10.9960   18.4597 C   0  0  0  0  0  0  0  0  0  0  0  0
    9.3798    6.6793   23.6625 C   0  0  0  0  0  0  0  0  0  0  0  0
   14.7425   10.0739   19.0802 O   0  0  0  0  0  0  0  0  0  0  0  0
    5.1894    9.4673   20.7118 C   0  0  0  0  0  0  0  0  0  0  0  0
    7.3773    8.8224   21.4870 C   0  0  0  0  0  0  0  0  0  0  0  0
    8.4391    6.6439   21.0235 C   0  0  0  0  0  0  0  0  0  0  0  0
    9.6494   11.1353   20.4167 C   0  0  0  0  0  0  0  0  0  0  0  0
    8.1431    7.6829   21.9046 C   0  0  0  0  0  0  0  0  0  0  0  0
    7.7796   10.1314   21.5115 N   0  0  0  0  0  0  0  0  0  0  0  0
    9.2768    5.6183   21.4437 C   0  0  0  0  0  0  0  0  0  0  0  0
    8.6315    7.7322   23.1768 C   0  0  0  0  0  0  0  0  0  0  0  0
   13.0537    9.9821   20.5781 C   0  0  0  0  0  0  0  0  0  0  0  0
   10.3850    4.6575   23.2386 O   0  0  0  0  0  0  0  0  0  0  0  0
    4.2069    6.8450   20.7994 C   0  0  0  0  0  0  0  0  0  0  0  0
    3.0726   10.1043   19.8522 O   0  0  0  0  0  0  0  0  0  0  0  0
    5.5057    7.1196   21.1155 C   0  0  0  0  0  0  0  0  0  0  0  0
    7.0367   11.0229   21.9948 O   0  0  0  0  0  0  0  0  0  0  0  0
  1  8  4  0
  1 12  4  0
  2  9  1  0
  2 11  4  0
  2 25  4  0
  3 12  4  0
  3 14  1  0
  3 23  4  0
  4 13  4  0
  4 21  4  0
  4 24  1  0
  5  8  4  0
  5 23  4  0
  6 18  2  0
  7 15  4  0
  7 16  1  0
  7 27  4  0
  8 18  1  0
 10 18  1  0
 10 20  1  0
 11 15  4  0
 11 26  1  0
 13 22  4  0
 16 19  1  0
 16 20  2  0
 17 19  4  0
 17 21  4  0
 19 22  4  0
 20 28  1  0
 25 27  4  0
M  END
$$$$

 Created by Python create_sdf_string function

 28 30  0  0  0  0  0  0  0  0999 V2000
   11.4592   11.2893   18.7941 C   0  0  0  0  0  0  0  0  0  0  0  0
    3.4202    7.9009   20.3866 C   0  0  0  0  0  0  0  0  0  0  0  0
   13.5280   10.3522   19.3586 C   0  0  0  0  0  0  0  0  0  0  0  0
    9.6923    5.6468   22.7891 C   0  0  0  0  0  0  0  0  0  0  0  0
   11.7756   10.2554   20.8841 N   0  0  0  0  0  0  0  0  0  0  0  0
    8.9876   11.9370   19.8757 O   0  0  0  0  0  0  0  0  0  0  0  0
    6.0167    8.4478   21.1089 C   0  0  0  0  0  0  0  0  0  0  0  0
   11.0002   10.8890   20.0262 C   0  0  0  0  0  0  0  0  0  0  0  0
    2.1721    7.7393   20.0315 O   0  0  0  0  0  0  0  0  0  0  0  0
    9.1107   10.3880   21.3769 N   0  0  0  0  0  0  0  0  0  0  0  0
    3.9102    9.2008   20.3124 C   0  0  0  0  0  0  0  0  0  0  0  0
   12.7292   10.9960   18.4597 C   0  0  0  0  0  0  0  0  0  0  0  0
    9.3798    6.6793   23.6625 C   0  0  0  0  0  0  0  0  0  0  0  0
   14.7425   10.0739   19.0802 O   0  0  0  0  0  0  0  0  0  0  0  0
    5.1894    9.4673   20.7118 C   0  0  0  0  0  0  0  0  0  0  0  0
    7.3773    8.8224   21.4870 C   0  0  0  0  0  0  0  0  0  0  0  0
    8.4391    6.6439   21.0235 C   0  0  0  0  0  0  0  0  0  0  0  0
    9.6494   11.1353   20.4167 C   0  0  0  0  0  0  0  0  0  0  0  0
    8.1431    7.6829   21.9046 C   0  0  0  0  0  0  0  0  0  0  0  0
    7.7796   10.1314   21.5115 N   0  0  0  0  0  0  0  0  0  0  0  0
    9.2768    5.6183   21.4437 C   0  0  0  0  0  0  0  0  0  0  0  0
    8.6315    7.7322   23.1768 C   0  0  0  0  0  0  0  0  0  0  0  0
   13.0537    9.9821   20.5781 C   0  0  0  0  0  0  0  0  0  0  0  0
   10.3850    4.6575   23.2386 O   0  0  0  0  0  0  0  0  0  0  0  0
    4.2069    6.8450   20.7994 C   0  0  0  0  0  0  0  0  0  0  0  0
    3.0726   10.1043   19.8522 O   0  0  0  0  0  0  0  0  0  0  0  0
    5.5057    7.1196   21.1155 C   0  0  0  0  0  0  0  0  0  0  0  0
    7.0367   11.0229   21.9948 O   0  0  0  0  0  0  0  0  0  0  0  0
  1  8  4  0
  1 12  4  0
  2  9  1  0
  2 11  4  0
  2 25  4  0
  3 12  4  0
  3 14  1  0
  3 23  4  0
  4 13  4  0
  4 21  4  0
  4 24  1  0
  5  8  4  0
  5 23  4  0
  6 18  2  0
  7 15  4  0
  7 16  1  0
  7 27  4  0
  8 18  1  0
 10 18  1  0
 10 20  1  0
 11 15  4  0
 11 26  1  0
 13 22  4  0
 16 19  1  0
 16 20  2  0
 17 19  4  0
 17 21  4  0
 19 22  4  0
 20 28  1  0
 25 27  4  0
M  END
$$$$

 Created by Python create_sdf_string function

 28 30  0  0  0  0  0  0  0  0999 V2000
   11.4592   11.2893   18.7941 C   0  0  0  0  0  0  0  0  0  0  0  0
    3.4202    7.9009   20.3866 C   0  0  0  0  0  0  0  0  0  0  0  0
   13.5280   10.3522   19.3586 C   0  0  0  0  0  0  0  0  0  0  0  0
    9.6923    5.6468   22.7891 C   0  0  0  0  0  0  0  0  0  0  0  0
   11.7756   10.2554   20.8841 N   0  0  0  0  0  0  0  0  0  0  0  0
    8.9876   11.9370   19.8757 O   0  0  0  0  0  0  0  0  0  0  0  0
    6.0167    8.4478   21.1089 C   0  0  0  0  0  0  0  0  0  0  0  0
   11.0002   10.8890   20.0262 C   0  0  0  0  0  0  0  0  0  0  0  0
    2.1721    7.7393   20.0315 O   0  0  0  0  0  0  0  0  0  0  0  0
    9.1107   10.3880   21.3769 N   0  0  0  0  0  0  0  0  0  0  0  0
    3.9102    9.2008   20.3124 C   0  0  0  0  0  0  0  0  0  0  0  0
   12.7292   10.9960   18.4597 C   0  0  0  0  0  0  0  0  0  0  0  0
    9.3798    6.6793   23.6625 C   0  0  0  0  0  0  0  0  0  0  0  0
   14.7425   10.0739   19.0802 O   0  0  0  0  0  0  0  0  0  0  0  0
    5.1894    9.4673   20.7118 C   0  0  0  0  0  0  0  0  0  0  0  0
    7.3773    8.8224   21.4870 C   0  0  0  0  0  0  0  0  0  0  0  0
    8.4391    6.6439   21.0235 C   0  0  0  0  0  0  0  0  0  0  0  0
    9.6494   11.1353   20.4167 C   0  0  0  0  0  0  0  0  0  0  0  0
    8.1431    7.6829   21.9046 C   0  0  0  0  0  0  0  0  0  0  0  0
    7.7796   10.1314   21.5115 N   0  0  0  0  0  0  0  0  0  0  0  0
    9.2768    5.6183   21.4437 C   0  0  0  0  0  0  0  0  0  0  0  0
    8.6315    7.7322   23.1768 C   0  0  0  0  0  0  0  0  0  0  0  0
   13.0537    9.9821   20.5781 C   0  0  0  0  0  0  0  0  0  0  0  0
   10.3850    4.6575   23.2386 O   0  0  0  0  0  0  0  0  0  0  0  0
    4.2069    6.8450   20.7994 C   0  0  0  0  0  0  0  0  0  0  0  0
    3.0726   10.1043   19.8522 O   0  0  0  0  0  0  0  0  0  0  0  0
    5.5057    7.1196   21.1155 C   0  0  0  0  0  0  0  0  0  0  0  0
    7.0367   11.0229   21.9948 O   0  0  0  0  0  0  0  0  0  0  0  0
  1  8  4  0
  1 12  4  0
  2  9  1  0
  2 11  4  0
  2 25  4  0
  3 12  4  0
  3 14  1  0
  3 23  4  0
  4 13  4  0
  4 21  4  0
  4 24  1  0
  5  8  4  0
  5 23  4  0
  6 18  2  0
  7 15  4  0
  7 16  1  0
  7 27  4  0
  8 18  1  0
 10 18  1  0
 10 20  1  0
 11 15  4  0
 11 26  1  0
 13 22  4  0
 16 19  1  0
 16 20  2  0
 17 19  4  0
 17 21  4  0
 19 22  4  0
 20 28  1  0
 25 27  4  0
M  END
$$$$

 Created by Python create_sdf_string function

 28 30  0  0  0  0  0  0  0  0999 V2000
   11.4592   11.2893   18.7941 C   0  0  0  0  0  0  0  0  0  0  0  0
    3.4202    7.9009   20.3866 C   0  0  0  0  0  0  0  0  0  0  0  0
   13.5280   10.3522   19.3586 C   0  0  0  0  0  0  0  0  0  0  0  0
    9.6923    5.6468   22.7891 C   0  0  0  0  0  0  0  0  0  0  0  0
   11.7756   10.2554   20.8841 N   0  0  0  0  0  0  0  0  0  0  0  0
    8.9876   11.9370   19.8757 O   0  0  0  0  0  0  0  0  0  0  0  0
    6.0167    8.4478   21.1089 C   0  0  0  0  0  0  0  0  0  0  0  0
   11.0002   10.8890   20.0262 C   0  0  0  0  0  0  0  0  0  0  0  0
    2.1721    7.7393   20.0315 O   0  0  0  0  0  0  0  0  0  0  0  0
    9.1107   10.3880   21.3769 N   0  0  0  0  0  0  0  0  0  0  0  0
    3.9102    9.2008   20.3124 C   0  0  0  0  0  0  0  0  0  0  0  0
   12.7292   10.9960   18.4597 C   0  0  0  0  0  0  0  0  0  0  0  0
    9.3798    6.6793   23.6625 C   0  0  0  0  0  0  0  0  0  0  0  0
   14.7425   10.0739   19.0802 O   0  0  0  0  0  0  0  0  0  0  0  0
    5.1894    9.4673   20.7118 C   0  0  0  0  0  0  0  0  0  0  0  0
    7.3773    8.8224   21.4870 C   0  0  0  0  0  0  0  0  0  0  0  0
    8.4391    6.6439   21.0235 C   0  0  0  0  0  0  0  0  0  0  0  0
    9.6494   11.1353   20.4167 C   0  0  0  0  0  0  0  0  0  0  0  0
    8.1431    7.6829   21.9046 C   0  0  0  0  0  0  0  0  0  0  0  0
    7.7796   10.1314   21.5115 N   0  0  0  0  0  0  0  0  0  0  0  0
    9.2768    5.6183   21.4437 C   0  0  0  0  0  0  0  0  0  0  0  0
    8.6315    7.7322   23.1768 C   0  0  0  0  0  0  0  0  0  0  0  0
   13.0537    9.9821   20.5781 C   0  0  0  0  0  0  0  0  0  0  0  0
   10.3850    4.6575   23.2386 O   0  0  0  0  0  0  0  0  0  0  0  0
    4.2069    6.8450   20.7994 C   0  0  0  0  0  0  0  0  0  0  0  0
    3.0726   10.1043   19.8522 O   0  0  0  0  0  0  0  0  0  0  0  0
    5.5057    7.1196   21.1155 C   0  0  0  0  0  0  0  0  0  0  0  0
    7.0367   11.0229   21.9948 O   0  0  0  0  0  0  0  0  0  0  0  0
  1  8  4  0
  1 12  4  0
  2  9  1  0
  2 11  4  0
  2 25  4  0
  3 12  4  0
  3 14  1  0
  3 23  4  0
  4 13  4  0
  4 21  4  0
  4 24  1  0
  5  8  4  0
  5 23  4  0
  6 18  2  0
  7 15  4  0
  7 16  1  0
  7 27  4  0
  8 18  1  0
 10 18  1  0
 10 20  1  0
 11 15  4  0
 11 26  1  0
 13 22  4  0
 16 19  1  0
 16 20  2  0
 17 19  4  0
 17 21  4  0
 19 22  4  0
 20 28  1  0
 25 27  4  0
M  END
$$$$

 Created by Python create_sdf_string function

 28 30  0  0  0  0  0  0  0  0999 V2000
   11.4592   11.2893   18.7941 C   0  0  0  0  0  0  0  0  0  0  0  0
    3.4202    7.9009   20.3866 C   0  0  0  0  0  0  0  0  0  0  0  0
   13.5280   10.3522   19.3586 C   0  0  0  0  0  0  0  0  0  0  0  0
    9.6923    5.6468   22.7891 C   0  0  0  0  0  0  0  0  0  0  0  0
   11.7756   10.2554   20.8841 N   0  0  0  0  0  0  0  0  0  0  0  0
    8.9876   11.9370   19.8757 O   0  0  0  0  0  0  0  0  0  0  0  0
    6.0167    8.4478   21.1089 C   0  0  0  0  0  0  0  0  0  0  0  0
   11.0002   10.8890   20.0262 C   0  0  0  0  0  0  0  0  0  0  0  0
    2.1721    7.7393   20.0315 O   0  0  0  0  0  0  0  0  0  0  0  0
    9.1107   10.3880   21.3769 N   0  0  0  0  0  0  0  0  0  0  0  0
    3.9102    9.2008   20.3124 C   0  0  0  0  0  0  0  0  0  0  0  0
   12.7292   10.9960   18.4597 C   0  0  0  0  0  0  0  0  0  0  0  0
    9.3798    6.6793   23.6625 C   0  0  0  0  0  0  0  0  0  0  0  0
   14.7425   10.0739   19.0802 O   0  0  0  0  0  0  0  0  0  0  0  0
    5.1894    9.4673   20.7118 C   0  0  0  0  0  0  0  0  0  0  0  0
    7.3773    8.8224   21.4870 C   0  0  0  0  0  0  0  0  0  0  0  0
    8.4391    6.6439   21.0235 C   0  0  0  0  0  0  0  0  0  0  0  0
    9.6494   11.1353   20.4167 C   0  0  0  0  0  0  0  0  0  0  0  0
    8.1431    7.6829   21.9046 C   0  0  0  0  0  0  0  0  0  0  0  0
    7.7796   10.1314   21.5115 N   0  0  0  0  0  0  0  0  0  0  0  0
    9.2768    5.6183   21.4437 C   0  0  0  0  0  0  0  0  0  0  0  0
    8.6315    7.7322   23.1768 C   0  0  0  0  0  0  0  0  0  0  0  0
   13.0537    9.9821   20.5781 C   0  0  0  0  0  0  0  0  0  0  0  0
   10.3850    4.6575   23.2386 O   0  0  0  0  0  0  0  0  0  0  0  0
    4.2069    6.8450   20.7994 C   0  0  0  0  0  0  0  0  0  0  0  0
    3.0726   10.1043   19.8522 O   0  0  0  0  0  0  0  0  0  0  0  0
    5.5057    7.1196   21.1155 C   0  0  0  0  0  0  0  0  0  0  0  0
    7.0367   11.0229   21.9948 O   0  0  0  0  0  0  0  0  0  0  0  0
  1  8  4  0
  1 12  4  0
  2  9  1  0
  2 11  4  0
  2 25  4  0
  3 12  4  0
  3 14  1  0
  3 23  4  0
  4 13  4  0
  4 21  4  0
  4 24  1  0
  5  8  4  0
  5 23  4  0
  6 18  2  0
  7 15  4  0
  7 16  1  0
  7 27  4  0
  8 18  1  0
 10 18  1  0
 10 20  1  0
 11 15  4  0
 11 26  1  0
 13 22  4  0
 16 19  1  0
 16 20  2  0
 17 19  4  0
 17 21  4  0
 19 22  4  0
 20 28  1  0
 25 27  4  0
M  END
$$$$

 Created by Python create_sdf_string function

 28 30  0  0  0  0  0  0  0  0999 V2000
   11.4592   11.2893   18.7941 C   0  0  0  0  0  0  0  0  0  0  0  0
    3.4202    7.9009   20.3866 C   0  0  0  0  0  0  0  0  0  0  0  0
   13.5280   10.3522   19.3586 C   0  0  0  0  0  0  0  0  0  0  0  0
    9.6923    5.6468   22.7891 C   0  0  0  0  0  0  0  0  0  0  0  0
   11.7756   10.2554   20.8841 N   0  0  0  0  0  0  0  0  0  0  0  0
    8.9876   11.9370   19.8757 O   0  0  0  0  0  0  0  0  0  0  0  0
    6.0167    8.4478   21.1089 C   0  0  0  0  0  0  0  0  0  0  0  0
   11.0002   10.8890   20.0262 C   0  0  0  0  0  0  0  0  0  0  0  0
    2.1721    7.7393   20.0315 O   0  0  0  0  0  0  0  0  0  0  0  0
    9.1107   10.3880   21.3769 N   0  0  0  0  0  0  0  0  0  0  0  0
    3.9102    9.2008   20.3124 C   0  0  0  0  0  0  0  0  0  0  0  0
   12.7292   10.9960   18.4597 C   0  0  0  0  0  0  0  0  0  0  0  0
    9.3798    6.6793   23.6625 C   0  0  0  0  0  0  0  0  0  0  0  0
   14.7425   10.0739   19.0802 O   0  0  0  0  0  0  0  0  0  0  0  0
    5.1894    9.4673   20.7118 C   0  0  0  0  0  0  0  0  0  0  0  0
    7.3773    8.8224   21.4870 C   0  0  0  0  0  0  0  0  0  0  0  0
    8.4391    6.6439   21.0235 C   0  0  0  0  0  0  0  0  0  0  0  0
    9.6494   11.1353   20.4167 C   0  0  0  0  0  0  0  0  0  0  0  0
    8.1431    7.6829   21.9046 C   0  0  0  0  0  0  0  0  0  0  0  0
    7.7796   10.1314   21.5115 N   0  0  0  0  0  0  0  0  0  0  0  0
    9.2768    5.6183   21.4437 C   0  0  0  0  0  0  0  0  0  0  0  0
    8.6315    7.7322   23.1768 C   0  0  0  0  0  0  0  0  0  0  0  0
   13.0537    9.9821   20.5781 C   0  0  0  0  0  0  0  0  0  0  0  0
   10.3850    4.6575   23.2386 O   0  0  0  0  0  0  0  0  0  0  0  0
    4.2069    6.8450   20.7994 C   0  0  0  0  0  0  0  0  0  0  0  0
    3.0726   10.1043   19.8522 O   0  0  0  0  0  0  0  0  0  0  0  0
    5.5057    7.1196   21.1155 C   0  0  0  0  0  0  0  0  0  0  0  0
    7.0367   11.0229   21.9948 O   0  0  0  0  0  0  0  0  0  0  0  0
  1  8  4  0
  1 12  4  0
  2  9  1  0
  2 11  4  0
  2 25  4  0
  3 12  4  0
  3 14  1  0
  3 23  4  0
  4 13  4  0
  4 21  4  0
  4 24  1  0
  5  8  4  0
  5 23  4  0
  6 18  2  0
  7 15  4  0
  7 16  1  0
  7 27  4  0
  8 18  1  0
 10 18  1  0
 10 20  1  0
 11 15  4  0
 11 26  1  0
 13 22  4  0
 16 19  1  0
 16 20  2  0
 17 19  4  0
 17 21  4  0
 19 22  4  0
 20 28  1  0
 25 27  4  0
M  END
$$$$

 Created by Python create_sdf_string function

 28 30  0  0  0  0  0  0  0  0999 V2000
   11.4592   11.2893   18.7941 C   0  0  0  0  0  0  0  0  0  0  0  0
    3.4202    7.9009   20.3866 C   0  0  0  0  0  0  0  0  0  0  0  0
   13.5280   10.3522   19.3586 C   0  0  0  0  0  0  0  0  0  0  0  0
    9.6923    5.6468   22.7891 C   0  0  0  0  0  0  0  0  0  0  0  0
   11.7756   10.2554   20.8841 N   0  0  0  0  0  0  0  0  0  0  0  0
    8.9876   11.9370   19.8757 O   0  0  0  0  0  0  0  0  0  0  0  0
    6.0167    8.4478   21.1089 C   0  0  0  0  0  0  0  0  0  0  0  0
   11.0002   10.8890   20.0262 C   0  0  0  0  0  0  0  0  0  0  0  0
    2.1721    7.7393   20.0315 O   0  0  0  0  0  0  0  0  0  0  0  0
    9.1107   10.3880   21.3769 N   0  0  0  0  0  0  0  0  0  0  0  0
    3.9102    9.2008   20.3124 C   0  0  0  0  0  0  0  0  0  0  0  0
   12.7292   10.9960   18.4597 C   0  0  0  0  0  0  0  0  0  0  0  0
    9.3798    6.6793   23.6625 C   0  0  0  0  0  0  0  0  0  0  0  0
   14.7425   10.0739   19.0802 O   0  0  0  0  0  0  0  0  0  0  0  0
    5.1894    9.4673   20.7118 C   0  0  0  0  0  0  0  0  0  0  0  0
    7.3773    8.8224   21.4870 C   0  0  0  0  0  0  0  0  0  0  0  0
    8.4391    6.6439   21.0235 C   0  0  0  0  0  0  0  0  0  0  0  0
    9.6494   11.1353   20.4167 C   0  0  0  0  0  0  0  0  0  0  0  0
    8.1431    7.6829   21.9046 C   0  0  0  0  0  0  0  0  0  0  0  0
    7.7796   10.1314   21.5115 N   0  0  0  0  0  0  0  0  0  0  0  0
    9.2768    5.6183   21.4437 C   0  0  0  0  0  0  0  0  0  0  0  0
    8.6315    7.7322   23.1768 C   0  0  0  0  0  0  0  0  0  0  0  0
   13.0537    9.9821   20.5781 C   0  0  0  0  0  0  0  0  0  0  0  0
   10.3850    4.6575   23.2386 O   0  0  0  0  0  0  0  0  0  0  0  0
    4.2069    6.8450   20.7994 C   0  0  0  0  0  0  0  0  0  0  0  0
    3.0726   10.1043   19.8522 O   0  0  0  0  0  0  0  0  0  0  0  0
    5.5057    7.1196   21.1155 C   0  0  0  0  0  0  0  0  0  0  0  0
    7.0367   11.0229   21.9948 O   0  0  0  0  0  0  0  0  0  0  0  0
  1  8  4  0
  1 12  4  0
  2  9  1  0
  2 11  4  0
  2 25  4  0
  3 12  4  0
  3 14  1  0
  3 23  4  0
  4 13  4  0
  4 21  4  0
  4 24  1  0
  5  8  4  0
  5 23  4  0
  6 18  2  0
  7 15  4  0
  7 16  1  0
  7 27  4  0
  8 18  1  0
 10 18  1  0
 10 20  1  0
 11 15  4  0
 11 26  1  0
 13 22  4  0
 16 19  1  0
 16 20  2  0
 17 19  4  0
 17 21  4  0
 19 22  4  0
 20 28  1  0
 25 27  4  0
M  END
$$$$

 Created by Python create_sdf_string function

 28 30  0  0  0  0  0  0  0  0999 V2000
   11.4592   11.2893   18.7941 C   0  0  0  0  0  0  0  0  0  0  0  0
    3.4202    7.9009   20.3866 C   0  0  0  0  0  0  0  0  0  0  0  0
   13.5280   10.3522   19.3586 C   0  0  0  0  0  0  0  0  0  0  0  0
    9.6923    5.6468   22.7891 C   0  0  0  0  0  0  0  0  0  0  0  0
   11.7756   10.2554   20.8841 N   0  0  0  0  0  0  0  0  0  0  0  0
    8.9876   11.9370   19.8757 O   0  0  0  0  0  0  0  0  0  0  0  0
    6.0167    8.4478   21.1089 C   0  0  0  0  0  0  0  0  0  0  0  0
   11.0002   10.8890   20.0262 C   0  0  0  0  0  0  0  0  0  0  0  0
    2.1721    7.7393   20.0315 O   0  0  0  0  0  0  0  0  0  0  0  0
    9.1107   10.3880   21.3769 N   0  0  0  0  0  0  0  0  0  0  0  0
    3.9102    9.2008   20.3124 C   0  0  0  0  0  0  0  0  0  0  0  0
   12.7292   10.9960   18.4597 C   0  0  0  0  0  0  0  0  0  0  0  0
    9.3798    6.6793   23.6625 C   0  0  0  0  0  0  0  0  0  0  0  0
   14.7425   10.0739   19.0802 O   0  0  0  0  0  0  0  0  0  0  0  0
    5.1894    9.4673   20.7118 C   0  0  0  0  0  0  0  0  0  0  0  0
    7.3773    8.8224   21.4870 C   0  0  0  0  0  0  0  0  0  0  0  0
    8.4391    6.6439   21.0235 C   0  0  0  0  0  0  0  0  0  0  0  0
    9.6494   11.1353   20.4167 C   0  0  0  0  0  0  0  0  0  0  0  0
    8.1431    7.6829   21.9046 C   0  0  0  0  0  0  0  0  0  0  0  0
    7.7796   10.1314   21.5115 N   0  0  0  0  0  0  0  0  0  0  0  0
    9.2768    5.6183   21.4437 C   0  0  0  0  0  0  0  0  0  0  0  0
    8.6315    7.7322   23.1768 C   0  0  0  0  0  0  0  0  0  0  0  0
   13.0537    9.9821   20.5781 C   0  0  0  0  0  0  0  0  0  0  0  0
   10.3850    4.6575   23.2386 O   0  0  0  0  0  0  0  0  0  0  0  0
    4.2069    6.8450   20.7994 C   0  0  0  0  0  0  0  0  0  0  0  0
    3.0726   10.1043   19.8522 O   0  0  0  0  0  0  0  0  0  0  0  0
    5.5057    7.1196   21.1155 C   0  0  0  0  0  0  0  0  0  0  0  0
    7.0367   11.0229   21.9948 O   0  0  0  0  0  0  0  0  0  0  0  0
  1  8  4  0
  1 12  4  0
  2  9  1  0
  2 11  4  0
  2 25  4  0
  3 12  4  0
  3 14  1  0
  3 23  4  0
  4 13  4  0
  4 21  4  0
  4 24  1  0
  5  8  4  0
  5 23  4  0
  6 18  2  0
  7 15  4  0
  7 16  1  0
  7 27  4  0
  8 18  1  0
 10 18  1  0
 10 20  1  0
 11 15  4  0
 11 26  1  0
 13 22  4  0
 16 19  1  0
 16 20  2  0
 17 19  4  0
 17 21  4  0
 19 22  4  0
 20 28  1  0
 25 27  4  0
M  END
$$$$

 Created by Python create_sdf_string function

 28 30  0  0  0  0  0  0  0  0999 V2000
   11.4592   11.2893   18.7941 C   0  0  0  0  0  0  0  0  0  0  0  0
    3.4202    7.9009   20.3866 C   0  0  0  0  0  0  0  0  0  0  0  0
   13.5280   10.3522   19.3586 C   0  0  0  0  0  0  0  0  0  0  0  0
    9.6923    5.6468   22.7891 C   0  0  0  0  0  0  0  0  0  0  0  0
   11.7756   10.2554   20.8841 N   0  0  0  0  0  0  0  0  0  0  0  0
    8.9876   11.9370   19.8757 O   0  0  0  0  0  0  0  0  0  0  0  0
    6.0167    8.4478   21.1089 C   0  0  0  0  0  0  0  0  0  0  0  0
   11.0002   10.8890   20.0262 C   0  0  0  0  0  0  0  0  0  0  0  0
    2.1721    7.7393   20.0315 O   0  0  0  0  0  0  0  0  0  0  0  0
    9.1107   10.3880   21.3769 N   0  0  0  0  0  0  0  0  0  0  0  0
    3.9102    9.2008   20.3124 C   0  0  0  0  0  0  0  0  0  0  0  0
   12.7292   10.9960   18.4597 C   0  0  0  0  0  0  0  0  0  0  0  0
    9.3798    6.6793   23.6625 C   0  0  0  0  0  0  0  0  0  0  0  0
   14.7425   10.0739   19.0802 O   0  0  0  0  0  0  0  0  0  0  0  0
    5.1894    9.4673   20.7118 C   0  0  0  0  0  0  0  0  0  0  0  0
    7.3773    8.8224   21.4870 C   0  0  0  0  0  0  0  0  0  0  0  0
    8.4391    6.6439   21.0235 C   0  0  0  0  0  0  0  0  0  0  0  0
    9.6494   11.1353   20.4167 C   0  0  0  0  0  0  0  0  0  0  0  0
    8.1431    7.6829   21.9046 C   0  0  0  0  0  0  0  0  0  0  0  0
    7.7796   10.1314   21.5115 N   0  0  0  0  0  0  0  0  0  0  0  0
    9.2768    5.6183   21.4437 C   0  0  0  0  0  0  0  0  0  0  0  0
    8.6315    7.7322   23.1768 C   0  0  0  0  0  0  0  0  0  0  0  0
   13.0537    9.9821   20.5781 C   0  0  0  0  0  0  0  0  0  0  0  0
   10.3850    4.6575   23.2386 O   0  0  0  0  0  0  0  0  0  0  0  0
    4.2069    6.8450   20.7994 C   0  0  0  0  0  0  0  0  0  0  0  0
    3.0726   10.1043   19.8522 O   0  0  0  0  0  0  0  0  0  0  0  0
    5.5057    7.1196   21.1155 C   0  0  0  0  0  0  0  0  0  0  0  0
    7.0367   11.0229   21.9948 O   0  0  0  0  0  0  0  0  0  0  0  0
  1  8  4  0
  1 12  4  0
  2  9  1  0
  2 11  4  0
  2 25  4  0
  3 12  4  0
  3 14  1  0
  3 23  4  0
  4 13  4  0
  4 21  4  0
  4 24  1  0
  5  8  4  0
  5 23  4  0
  6 18  2  0
  7 15  4  0
  7 16  1  0
  7 27  4  0
  8 18  1  0
 10 18  1  0
 10 20  1  0
 11 15  4  0
 11 26  1  0
 13 22  4  0
 16 19  1  0
 16 20  2  0
 17 19  4  0
 17 21  4  0
 19 22  4  0
 20 28  1  0
 25 27  4  0
M  END
$$$$

 Created by Python create_sdf_string function

 28 30  0  0  0  0  0  0  0  0999 V2000
   11.4592   11.2893   18.7941 C   0  0  0  0  0  0  0  0  0  0  0  0
    3.4202    7.9009   20.3866 C   0  0  0  0  0  0  0  0  0  0  0  0
   13.5280   10.3522   19.3586 C   0  0  0  0  0  0  0  0  0  0  0  0
    9.6923    5.6468   22.7891 C   0  0  0  0  0  0  0  0  0  0  0  0
   11.7756   10.2554   20.8841 N   0  0  0  0  0  0  0  0  0  0  0  0
    8.9876   11.9370   19.8757 O   0  0  0  0  0  0  0  0  0  0  0  0
    6.0167    8.4478   21.1089 C   0  0  0  0  0  0  0  0  0  0  0  0
   11.0002   10.8890   20.0262 C   0  0  0  0  0  0  0  0  0  0  0  0
    2.1721    7.7393   20.0315 O   0  0  0  0  0  0  0  0  0  0  0  0
    9.1107   10.3880   21.3769 N   0  0  0  0  0  0  0  0  0  0  0  0
    3.9102    9.2008   20.3124 C   0  0  0  0  0  0  0  0  0  0  0  0
   12.7292   10.9960   18.4597 C   0  0  0  0  0  0  0  0  0  0  0  0
    9.3798    6.6793   23.6625 C   0  0  0  0  0  0  0  0  0  0  0  0
   14.7425   10.0739   19.0802 O   0  0  0  0  0  0  0  0  0  0  0  0
    5.1894    9.4673   20.7118 C   0  0  0  0  0  0  0  0  0  0  0  0
    7.3773    8.8224   21.4870 C   0  0  0  0  0  0  0  0  0  0  0  0
    8.4391    6.6439   21.0235 C   0  0  0  0  0  0  0  0  0  0  0  0
    9.6494   11.1353   20.4167 C   0  0  0  0  0  0  0  0  0  0  0  0
    8.1431    7.6829   21.9046 C   0  0  0  0  0  0  0  0  0  0  0  0
    7.7796   10.1314   21.5115 N   0  0  0  0  0  0  0  0  0  0  0  0
    9.2768    5.6183   21.4437 C   0  0  0  0  0  0  0  0  0  0  0  0
    8.6315    7.7322   23.1768 C   0  0  0  0  0  0  0  0  0  0  0  0
   13.0537    9.9821   20.5781 C   0  0  0  0  0  0  0  0  0  0  0  0
   10.3850    4.6575   23.2386 O   0  0  0  0  0  0  0  0  0  0  0  0
    4.2069    6.8450   20.7994 C   0  0  0  0  0  0  0  0  0  0  0  0
    3.0726   10.1043   19.8522 O   0  0  0  0  0  0  0  0  0  0  0  0
    5.5057    7.1196   21.1155 C   0  0  0  0  0  0  0  0  0  0  0  0
    7.0367   11.0229   21.9948 O   0  0  0  0  0  0  0  0  0  0  0  0
  1  8  4  0
  1 12  4  0
  2  9  1  0
  2 11  4  0
  2 25  4  0
  3 12  4  0
  3 14  1  0
  3 23  4  0
  4 13  4  0
  4 21  4  0
  4 24  1  0
  5  8  4  0
  5 23  4  0
  6 18  2  0
  7 15  4  0
  7 16  1  0
  7 27  4  0
  8 18  1  0
 10 18  1  0
 10 20  1  0
 11 15  4  0
 11 26  1  0
 13 22  4  0
 16 19  1  0
 16 20  2  0
 17 19  4  0
 17 21  4  0
 19 22  4  0
 20 28  1  0
 25 27  4  0
M  END
$$$$

 Created by Python create_sdf_string function

 28 30  0  0  0  0  0  0  0  0999 V2000
   11.4592   11.2893   18.7941 C   0  0  0  0  0  0  0  0  0  0  0  0
    3.4202    7.9009   20.3866 C   0  0  0  0  0  0  0  0  0  0  0  0
   13.5280   10.3522   19.3586 C   0  0  0  0  0  0  0  0  0  0  0  0
    9.6923    5.6468   22.7891 C   0  0  0  0  0  0  0  0  0  0  0  0
   11.7756   10.2554   20.8841 N   0  0  0  0  0  0  0  0  0  0  0  0
    8.9876   11.9370   19.8757 O   0  0  0  0  0  0  0  0  0  0  0  0
    6.0167    8.4478   21.1089 C   0  0  0  0  0  0  0  0  0  0  0  0
   11.0002   10.8890   20.0262 C   0  0  0  0  0  0  0  0  0  0  0  0
    2.1721    7.7393   20.0315 O   0  0  0  0  0  0  0  0  0  0  0  0
    9.1107   10.3880   21.3769 N   0  0  0  0  0  0  0  0  0  0  0  0
    3.9102    9.2008   20.3124 C   0  0  0  0  0  0  0  0  0  0  0  0
   12.7292   10.9960   18.4597 C   0  0  0  0  0  0  0  0  0  0  0  0
    9.3798    6.6793   23.6625 C   0  0  0  0  0  0  0  0  0  0  0  0
   14.7425   10.0739   19.0802 O   0  0  0  0  0  0  0  0  0  0  0  0
    5.1894    9.4673   20.7118 C   0  0  0  0  0  0  0  0  0  0  0  0
    7.3773    8.8224   21.4870 C   0  0  0  0  0  0  0  0  0  0  0  0
    8.4391    6.6439   21.0235 C   0  0  0  0  0  0  0  0  0  0  0  0
    9.6494   11.1353   20.4167 C   0  0  0  0  0  0  0  0  0  0  0  0
    8.1431    7.6829   21.9046 C   0  0  0  0  0  0  0  0  0  0  0  0
    7.7796   10.1314   21.5115 N   0  0  0  0  0  0  0  0  0  0  0  0
    9.2768    5.6183   21.4437 C   0  0  0  0  0  0  0  0  0  0  0  0
    8.6315    7.7322   23.1768 C   0  0  0  0  0  0  0  0  0  0  0  0
   13.0537    9.9821   20.5781 C   0  0  0  0  0  0  0  0  0  0  0  0
   10.3850    4.6575   23.2386 O   0  0  0  0  0  0  0  0  0  0  0  0
    4.2069    6.8450   20.7994 C   0  0  0  0  0  0  0  0  0  0  0  0
    3.0726   10.1043   19.8522 O   0  0  0  0  0  0  0  0  0  0  0  0
    5.5057    7.1196   21.1155 C   0  0  0  0  0  0  0  0  0  0  0  0
    7.0367   11.0229   21.9948 O   0  0  0  0  0  0  0  0  0  0  0  0
  1  8  4  0
  1 12  4  0
  2  9  1  0
  2 11  4  0
  2 25  4  0
  3 12  4  0
  3 14  1  0
  3 23  4  0
  4 13  4  0
  4 21  4  0
  4 24  1  0
  5  8  4  0
  5 23  4  0
  6 18  2  0
  7 15  4  0
  7 16  1  0
  7 27  4  0
  8 18  1  0
 10 18  1  0
 10 20  1  0
 11 15  4  0
 11 26  1  0
 13 22  4  0
 16 19  1  0
 16 20  2  0
 17 19  4  0
 17 21  4  0
 19 22  4  0
 20 28  1  0
 25 27  4  0
M  END
$$$$

 Created by Python create_sdf_string function

 28 30  0  0  0  0  0  0  0  0999 V2000
   11.4592   11.2893   18.7941 C   0  0  0  0  0  0  0  0  0  0  0  0
    3.4202    7.9009   20.3866 C   0  0  0  0  0  0  0  0  0  0  0  0
   13.5280   10.3522   19.3586 C   0  0  0  0  0  0  0  0  0  0  0  0
    9.6923    5.6468   22.7891 C   0  0  0  0  0  0  0  0  0  0  0  0
   11.7756   10.2554   20.8841 N   0  0  0  0  0  0  0  0  0  0  0  0
    8.9876   11.9370   19.8757 O   0  0  0  0  0  0  0  0  0  0  0  0
    6.0167    8.4478   21.1089 C   0  0  0  0  0  0  0  0  0  0  0  0
   11.0002   10.8890   20.0262 C   0  0  0  0  0  0  0  0  0  0  0  0
    2.1721    7.7393   20.0315 O   0  0  0  0  0  0  0  0  0  0  0  0
    9.1107   10.3880   21.3769 N   0  0  0  0  0  0  0  0  0  0  0  0
    3.9102    9.2008   20.3124 C   0  0  0  0  0  0  0  0  0  0  0  0
   12.7292   10.9960   18.4597 C   0  0  0  0  0  0  0  0  0  0  0  0
    9.3798    6.6793   23.6625 C   0  0  0  0  0  0  0  0  0  0  0  0
   14.7425   10.0739   19.0802 O   0  0  0  0  0  0  0  0  0  0  0  0
    5.1894    9.4673   20.7118 C   0  0  0  0  0  0  0  0  0  0  0  0
    7.3773    8.8224   21.4870 C   0  0  0  0  0  0  0  0  0  0  0  0
    8.4391    6.6439   21.0235 C   0  0  0  0  0  0  0  0  0  0  0  0
    9.6494   11.1353   20.4167 C   0  0  0  0  0  0  0  0  0  0  0  0
    8.1431    7.6829   21.9046 C   0  0  0  0  0  0  0  0  0  0  0  0
    7.7796   10.1314   21.5115 N   0  0  0  0  0  0  0  0  0  0  0  0
    9.2768    5.6183   21.4437 C   0  0  0  0  0  0  0  0  0  0  0  0
    8.6315    7.7322   23.1768 C   0  0  0  0  0  0  0  0  0  0  0  0
   13.0537    9.9821   20.5781 C   0  0  0  0  0  0  0  0  0  0  0  0
   10.3850    4.6575   23.2386 O   0  0  0  0  0  0  0  0  0  0  0  0
    4.2069    6.8450   20.7994 C   0  0  0  0  0  0  0  0  0  0  0  0
    3.0726   10.1043   19.8522 O   0  0  0  0  0  0  0  0  0  0  0  0
    5.5057    7.1196   21.1155 C   0  0  0  0  0  0  0  0  0  0  0  0
    7.0367   11.0229   21.9948 O   0  0  0  0  0  0  0  0  0  0  0  0
  1  8  4  0
  1 12  4  0
  2  9  1  0
  2 11  4  0
  2 25  4  0
  3 12  4  0
  3 14  1  0
  3 23  4  0
  4 13  4  0
  4 21  4  0
  4 24  1  0
  5  8  4  0
  5 23  4  0
  6 18  2  0
  7 15  4  0
  7 16  1  0
  7 27  4  0
  8 18  1  0
 10 18  1  0
 10 20  1  0
 11 15  4  0
 11 26  1  0
 13 22  4  0
 16 19  1  0
 16 20  2  0
 17 19  4  0
 17 21  4  0
 19 22  4  0
 20 28  1  0
 25 27  4  0
M  END
$$$$

 Created by Python create_sdf_string function

 28 30  0  0  0  0  0  0  0  0999 V2000
   11.4592   11.2893   18.7941 C   0  0  0  0  0  0  0  0  0  0  0  0
    3.4202    7.9009   20.3866 C   0  0  0  0  0  0  0  0  0  0  0  0
   13.5280   10.3522   19.3586 C   0  0  0  0  0  0  0  0  0  0  0  0
    9.6923    5.6468   22.7891 C   0  0  0  0  0  0  0  0  0  0  0  0
   11.7756   10.2554   20.8841 N   0  0  0  0  0  0  0  0  0  0  0  0
    8.9876   11.9370   19.8757 O   0  0  0  0  0  0  0  0  0  0  0  0
    6.0167    8.4478   21.1089 C   0  0  0  0  0  0  0  0  0  0  0  0
   11.0002   10.8890   20.0262 C   0  0  0  0  0  0  0  0  0  0  0  0
    2.1721    7.7393   20.0315 O   0  0  0  0  0  0  0  0  0  0  0  0
    9.1107   10.3880   21.3769 N   0  0  0  0  0  0  0  0  0  0  0  0
    3.9102    9.2008   20.3124 C   0  0  0  0  0  0  0  0  0  0  0  0
   12.7292   10.9960   18.4597 C   0  0  0  0  0  0  0  0  0  0  0  0
    9.3798    6.6793   23.6625 C   0  0  0  0  0  0  0  0  0  0  0  0
   14.7425   10.0739   19.0802 O   0  0  0  0  0  0  0  0  0  0  0  0
    5.1894    9.4673   20.7118 C   0  0  0  0  0  0  0  0  0  0  0  0
    7.3773    8.8224   21.4870 C   0  0  0  0  0  0  0  0  0  0  0  0
    8.4391    6.6439   21.0235 C   0  0  0  0  0  0  0  0  0  0  0  0
    9.6494   11.1353   20.4167 C   0  0  0  0  0  0  0  0  0  0  0  0
    8.1431    7.6829   21.9046 C   0  0  0  0  0  0  0  0  0  0  0  0
    7.7796   10.1314   21.5115 N   0  0  0  0  0  0  0  0  0  0  0  0
    9.2768    5.6183   21.4437 C   0  0  0  0  0  0  0  0  0  0  0  0
    8.6315    7.7322   23.1768 C   0  0  0  0  0  0  0  0  0  0  0  0
   13.0537    9.9821   20.5781 C   0  0  0  0  0  0  0  0  0  0  0  0
   10.3850    4.6575   23.2386 O   0  0  0  0  0  0  0  0  0  0  0  0
    4.2069    6.8450   20.7994 C   0  0  0  0  0  0  0  0  0  0  0  0
    3.0726   10.1043   19.8522 O   0  0  0  0  0  0  0  0  0  0  0  0
    5.5057    7.1196   21.1155 C   0  0  0  0  0  0  0  0  0  0  0  0
    7.0367   11.0229   21.9948 O   0  0  0  0  0  0  0  0  0  0  0  0
  1  8  4  0
  1 12  4  0
  2  9  1  0
  2 11  4  0
  2 25  4  0
  3 12  4  0
  3 14  1  0
  3 23  4  0
  4 13  4  0
  4 21  4  0
  4 24  1  0
  5  8  4  0
  5 23  4  0
  6 18  2  0
  7 15  4  0
  7 16  1  0
  7 27  4  0
  8 18  1  0
 10 18  1  0
 10 20  1  0
 11 15  4  0
 11 26  1  0
 13 22  4  0
 16 19  1  0
 16 20  2  0
 17 19  4  0
 17 21  4  0
 19 22  4  0
 20 28  1  0
 25 27  4  0
M  END
$$$$

 Created by Python create_sdf_string function

 28 30  0  0  0  0  0  0  0  0999 V2000
   11.4592   11.2893   18.7941 C   0  0  0  0  0  0  0  0  0  0  0  0
    3.4202    7.9009   20.3866 C   0  0  0  0  0  0  0  0  0  0  0  0
   13.5280   10.3522   19.3586 C   0  0  0  0  0  0  0  0  0  0  0  0
    9.6923    5.6468   22.7891 C   0  0  0  0  0  0  0  0  0  0  0  0
   11.7756   10.2554   20.8841 N   0  0  0  0  0  0  0  0  0  0  0  0
    8.9876   11.9370   19.8757 O   0  0  0  0  0  0  0  0  0  0  0  0
    6.0167    8.4478   21.1089 C   0  0  0  0  0  0  0  0  0  0  0  0
   11.0002   10.8890   20.0262 C   0  0  0  0  0  0  0  0  0  0  0  0
    2.1721    7.7393   20.0315 O   0  0  0  0  0  0  0  0  0  0  0  0
    9.1107   10.3880   21.3769 N   0  0  0  0  0  0  0  0  0  0  0  0
    3.9102    9.2008   20.3124 C   0  0  0  0  0  0  0  0  0  0  0  0
   12.7292   10.9960   18.4597 C   0  0  0  0  0  0  0  0  0  0  0  0
    9.3798    6.6793   23.6625 C   0  0  0  0  0  0  0  0  0  0  0  0
   14.7425   10.0739   19.0802 O   0  0  0  0  0  0  0  0  0  0  0  0
    5.1894    9.4673   20.7118 C   0  0  0  0  0  0  0  0  0  0  0  0
    7.3773    8.8224   21.4870 C   0  0  0  0  0  0  0  0  0  0  0  0
    8.4391    6.6439   21.0235 C   0  0  0  0  0  0  0  0  0  0  0  0
    9.6494   11.1353   20.4167 C   0  0  0  0  0  0  0  0  0  0  0  0
    8.1431    7.6829   21.9046 C   0  0  0  0  0  0  0  0  0  0  0  0
    7.7796   10.1314   21.5115 N   0  0  0  0  0  0  0  0  0  0  0  0
    9.2768    5.6183   21.4437 C   0  0  0  0  0  0  0  0  0  0  0  0
    8.6315    7.7322   23.1768 C   0  0  0  0  0  0  0  0  0  0  0  0
   13.0537    9.9821   20.5781 C   0  0  0  0  0  0  0  0  0  0  0  0
   10.3850    4.6575   23.2386 O   0  0  0  0  0  0  0  0  0  0  0  0
    4.2069    6.8450   20.7994 C   0  0  0  0  0  0  0  0  0  0  0  0
    3.0726   10.1043   19.8522 O   0  0  0  0  0  0  0  0  0  0  0  0
    5.5057    7.1196   21.1155 C   0  0  0  0  0  0  0  0  0  0  0  0
    7.0367   11.0229   21.9948 O   0  0  0  0  0  0  0  0  0  0  0  0
  1  8  4  0
  1 12  4  0
  2  9  1  0
  2 11  4  0
  2 25  4  0
  3 12  4  0
  3 14  1  0
  3 23  4  0
  4 13  4  0
  4 21  4  0
  4 24  1  0
  5  8  4  0
  5 23  4  0
  6 18  2  0
  7 15  4  0
  7 16  1  0
  7 27  4  0
  8 18  1  0
 10 18  1  0
 10 20  1  0
 11 15  4  0
 11 26  1  0
 13 22  4  0
 16 19  1  0
 16 20  2  0
 17 19  4  0
 17 21  4  0
 19 22  4  0
 20 28  1  0
 25 27  4  0
M  END
$$$$

 Created by Python create_sdf_string function

 28 30  0  0  0  0  0  0  0  0999 V2000
   11.4592   11.2893   18.7941 C   0  0  0  0  0  0  0  0  0  0  0  0
    3.4202    7.9009   20.3866 C   0  0  0  0  0  0  0  0  0  0  0  0
   13.5280   10.3522   19.3586 C   0  0  0  0  0  0  0  0  0  0  0  0
    9.6923    5.6468   22.7891 C   0  0  0  0  0  0  0  0  0  0  0  0
   11.7756   10.2554   20.8841 N   0  0  0  0  0  0  0  0  0  0  0  0
    8.9876   11.9370   19.8757 O   0  0  0  0  0  0  0  0  0  0  0  0
    6.0167    8.4478   21.1089 C   0  0  0  0  0  0  0  0  0  0  0  0
   11.0002   10.8890   20.0262 C   0  0  0  0  0  0  0  0  0  0  0  0
    2.1721    7.7393   20.0315 O   0  0  0  0  0  0  0  0  0  0  0  0
    9.1107   10.3880   21.3769 N   0  0  0  0  0  0  0  0  0  0  0  0
    3.9102    9.2008   20.3124 C   0  0  0  0  0  0  0  0  0  0  0  0
   12.7292   10.9960   18.4597 C   0  0  0  0  0  0  0  0  0  0  0  0
    9.3798    6.6793   23.6625 C   0  0  0  0  0  0  0  0  0  0  0  0
   14.7425   10.0739   19.0802 O   0  0  0  0  0  0  0  0  0  0  0  0
    5.1894    9.4673   20.7118 C   0  0  0  0  0  0  0  0  0  0  0  0
    7.3773    8.8224   21.4870 C   0  0  0  0  0  0  0  0  0  0  0  0
    8.4391    6.6439   21.0235 C   0  0  0  0  0  0  0  0  0  0  0  0
    9.6494   11.1353   20.4167 C   0  0  0  0  0  0  0  0  0  0  0  0
    8.1431    7.6829   21.9046 C   0  0  0  0  0  0  0  0  0  0  0  0
    7.7796   10.1314   21.5115 N   0  0  0  0  0  0  0  0  0  0  0  0
    9.2768    5.6183   21.4437 C   0  0  0  0  0  0  0  0  0  0  0  0
    8.6315    7.7322   23.1768 C   0  0  0  0  0  0  0  0  0  0  0  0
   13.0537    9.9821   20.5781 C   0  0  0  0  0  0  0  0  0  0  0  0
   10.3850    4.6575   23.2386 O   0  0  0  0  0  0  0  0  0  0  0  0
    4.2069    6.8450   20.7994 C   0  0  0  0  0  0  0  0  0  0  0  0
    3.0726   10.1043   19.8522 O   0  0  0  0  0  0  0  0  0  0  0  0
    5.5057    7.1196   21.1155 C   0  0  0  0  0  0  0  0  0  0  0  0
    7.0367   11.0229   21.9948 O   0  0  0  0  0  0  0  0  0  0  0  0
  1  8  4  0
  1 12  4  0
  2  9  1  0
  2 11  4  0
  2 25  4  0
  3 12  4  0
  3 14  1  0
  3 23  4  0
  4 13  4  0
  4 21  4  0
  4 24  1  0
  5  8  4  0
  5 23  4  0
  6 18  2  0
  7 15  4  0
  7 16  1  0
  7 27  4  0
  8 18  1  0
 10 18  1  0
 10 20  1  0
 11 15  4  0
 11 26  1  0
 13 22  4  0
 16 19  1  0
 16 20  2  0
 17 19  4  0
 17 21  4  0
 19 22  4  0
 20 28  1  0
 25 27  4  0
M  END
$$$$

 Created by Python create_sdf_string function

 28 30  0  0  0  0  0  0  0  0999 V2000
   11.4592   11.2893   18.7941 C   0  0  0  0  0  0  0  0  0  0  0  0
    3.4202    7.9009   20.3866 C   0  0  0  0  0  0  0  0  0  0  0  0
   13.5280   10.3522   19.3586 C   0  0  0  0  0  0  0  0  0  0  0  0
    9.6923    5.6468   22.7891 C   0  0  0  0  0  0  0  0  0  0  0  0
   11.7756   10.2554   20.8841 N   0  0  0  0  0  0  0  0  0  0  0  0
    8.9876   11.9370   19.8757 O   0  0  0  0  0  0  0  0  0  0  0  0
    6.0167    8.4478   21.1089 C   0  0  0  0  0  0  0  0  0  0  0  0
   11.0002   10.8890   20.0262 C   0  0  0  0  0  0  0  0  0  0  0  0
    2.1721    7.7393   20.0315 O   0  0  0  0  0  0  0  0  0  0  0  0
    9.1107   10.3880   21.3769 N   0  0  0  0  0  0  0  0  0  0  0  0
    3.9102    9.2008   20.3124 C   0  0  0  0  0  0  0  0  0  0  0  0
   12.7292   10.9960   18.4597 C   0  0  0  0  0  0  0  0  0  0  0  0
    9.3798    6.6793   23.6625 C   0  0  0  0  0  0  0  0  0  0  0  0
   14.7425   10.0739   19.0802 O   0  0  0  0  0  0  0  0  0  0  0  0
    5.1894    9.4673   20.7118 C   0  0  0  0  0  0  0  0  0  0  0  0
    7.3773    8.8224   21.4870 C   0  0  0  0  0  0  0  0  0  0  0  0
    8.4391    6.6439   21.0235 C   0  0  0  0  0  0  0  0  0  0  0  0
    9.6494   11.1353   20.4167 C   0  0  0  0  0  0  0  0  0  0  0  0
    8.1431    7.6829   21.9046 C   0  0  0  0  0  0  0  0  0  0  0  0
    7.7796   10.1314   21.5115 N   0  0  0  0  0  0  0  0  0  0  0  0
    9.2768    5.6183   21.4437 C   0  0  0  0  0  0  0  0  0  0  0  0
    8.6315    7.7322   23.1768 C   0  0  0  0  0  0  0  0  0  0  0  0
   13.0537    9.9821   20.5781 C   0  0  0  0  0  0  0  0  0  0  0  0
   10.3850    4.6575   23.2386 O   0  0  0  0  0  0  0  0  0  0  0  0
    4.2069    6.8450   20.7994 C   0  0  0  0  0  0  0  0  0  0  0  0
    3.0726   10.1043   19.8522 O   0  0  0  0  0  0  0  0  0  0  0  0
    5.5057    7.1196   21.1155 C   0  0  0  0  0  0  0  0  0  0  0  0
    7.0367   11.0229   21.9948 O   0  0  0  0  0  0  0  0  0  0  0  0
  1  8  4  0
  1 12  4  0
  2  9  1  0
  2 11  4  0
  2 25  4  0
  3 12  4  0
  3 14  1  0
  3 23  4  0
  4 13  4  0
  4 21  4  0
  4 24  1  0
  5  8  4  0
  5 23  4  0
  6 18  2  0
  7 15  4  0
  7 16  1  0
  7 27  4  0
  8 18  1  0
 10 18  1  0
 10 20  1  0
 11 15  4  0
 11 26  1  0
 13 22  4  0
 16 19  1  0
 16 20  2  0
 17 19  4  0
 17 21  4  0
 19 22  4  0
 20 28  1  0
 25 27  4  0
M  END
$$$$

 Created by Python create_sdf_string function

 28 30  0  0  0  0  0  0  0  0999 V2000
   11.4592   11.2893   18.7941 C   0  0  0  0  0  0  0  0  0  0  0  0
    3.4202    7.9009   20.3866 C   0  0  0  0  0  0  0  0  0  0  0  0
   13.5280   10.3522   19.3586 C   0  0  0  0  0  0  0  0  0  0  0  0
    9.6923    5.6468   22.7891 C   0  0  0  0  0  0  0  0  0  0  0  0
   11.7756   10.2554   20.8841 N   0  0  0  0  0  0  0  0  0  0  0  0
    8.9876   11.9370   19.8757 O   0  0  0  0  0  0  0  0  0  0  0  0
    6.0167    8.4478   21.1089 C   0  0  0  0  0  0  0  0  0  0  0  0
   11.0002   10.8890   20.0262 C   0  0  0  0  0  0  0  0  0  0  0  0
    2.1721    7.7393   20.0315 O   0  0  0  0  0  0  0  0  0  0  0  0
    9.1107   10.3880   21.3769 N   0  0  0  0  0  0  0  0  0  0  0  0
    3.9102    9.2008   20.3124 C   0  0  0  0  0  0  0  0  0  0  0  0
   12.7292   10.9960   18.4597 C   0  0  0  0  0  0  0  0  0  0  0  0
    9.3798    6.6793   23.6625 C   0  0  0  0  0  0  0  0  0  0  0  0
   14.7425   10.0739   19.0802 O   0  0  0  0  0  0  0  0  0  0  0  0
    5.1894    9.4673   20.7118 C   0  0  0  0  0  0  0  0  0  0  0  0
    7.3773    8.8224   21.4870 C   0  0  0  0  0  0  0  0  0  0  0  0
    8.4391    6.6439   21.0235 C   0  0  0  0  0  0  0  0  0  0  0  0
    9.6494   11.1353   20.4167 C   0  0  0  0  0  0  0  0  0  0  0  0
    8.1431    7.6829   21.9046 C   0  0  0  0  0  0  0  0  0  0  0  0
    7.7796   10.1314   21.5115 N   0  0  0  0  0  0  0  0  0  0  0  0
    9.2768    5.6183   21.4437 C   0  0  0  0  0  0  0  0  0  0  0  0
    8.6315    7.7322   23.1768 C   0  0  0  0  0  0  0  0  0  0  0  0
   13.0537    9.9821   20.5781 C   0  0  0  0  0  0  0  0  0  0  0  0
   10.3850    4.6575   23.2386 O   0  0  0  0  0  0  0  0  0  0  0  0
    4.2069    6.8450   20.7994 C   0  0  0  0  0  0  0  0  0  0  0  0
    3.0726   10.1043   19.8522 O   0  0  0  0  0  0  0  0  0  0  0  0
    5.5057    7.1196   21.1155 C   0  0  0  0  0  0  0  0  0  0  0  0
    7.0367   11.0229   21.9948 O   0  0  0  0  0  0  0  0  0  0  0  0
  1  8  4  0
  1 12  4  0
  2  9  1  0
  2 11  4  0
  2 25  4  0
  3 12  4  0
  3 14  1  0
  3 23  4  0
  4 13  4  0
  4 21  4  0
  4 24  1  0
  5  8  4  0
  5 23  4  0
  6 18  2  0
  7 15  4  0
  7 16  1  0
  7 27  4  0
  8 18  1  0
 10 18  1  0
 10 20  1  0
 11 15  4  0
 11 26  1  0
 13 22  4  0
 16 19  1  0
 16 20  2  0
 17 19  4  0
 17 21  4  0
 19 22  4  0
 20 28  1  0
 25 27  4  0
M  END
$$$$

 Created by Python create_sdf_string function

 28 30  0  0  0  0  0  0  0  0999 V2000
   11.4592   11.2893   18.7941 C   0  0  0  0  0  0  0  0  0  0  0  0
    3.4202    7.9009   20.3866 C   0  0  0  0  0  0  0  0  0  0  0  0
   13.5280   10.3522   19.3586 C   0  0  0  0  0  0  0  0  0  0  0  0
    9.6923    5.6468   22.7891 C   0  0  0  0  0  0  0  0  0  0  0  0
   11.7756   10.2554   20.8841 N   0  0  0  0  0  0  0  0  0  0  0  0
    8.9876   11.9370   19.8757 O   0  0  0  0  0  0  0  0  0  0  0  0
    6.0167    8.4478   21.1089 C   0  0  0  0  0  0  0  0  0  0  0  0
   11.0002   10.8890   20.0262 C   0  0  0  0  0  0  0  0  0  0  0  0
    2.1721    7.7393   20.0315 O   0  0  0  0  0  0  0  0  0  0  0  0
    9.1107   10.3880   21.3769 N   0  0  0  0  0  0  0  0  0  0  0  0
    3.9102    9.2008   20.3124 C   0  0  0  0  0  0  0  0  0  0  0  0
   12.7292   10.9960   18.4597 C   0  0  0  0  0  0  0  0  0  0  0  0
    9.3798    6.6793   23.6625 C   0  0  0  0  0  0  0  0  0  0  0  0
   14.7425   10.0739   19.0802 O   0  0  0  0  0  0  0  0  0  0  0  0
    5.1894    9.4673   20.7118 C   0  0  0  0  0  0  0  0  0  0  0  0
    7.3773    8.8224   21.4870 C   0  0  0  0  0  0  0  0  0  0  0  0
    8.4391    6.6439   21.0235 C   0  0  0  0  0  0  0  0  0  0  0  0
    9.6494   11.1353   20.4167 C   0  0  0  0  0  0  0  0  0  0  0  0
    8.1431    7.6829   21.9046 C   0  0  0  0  0  0  0  0  0  0  0  0
    7.7796   10.1314   21.5115 N   0  0  0  0  0  0  0  0  0  0  0  0
    9.2768    5.6183   21.4437 C   0  0  0  0  0  0  0  0  0  0  0  0
    8.6315    7.7322   23.1768 C   0  0  0  0  0  0  0  0  0  0  0  0
   13.0537    9.9821   20.5781 C   0  0  0  0  0  0  0  0  0  0  0  0
   10.3850    4.6575   23.2386 O   0  0  0  0  0  0  0  0  0  0  0  0
    4.2069    6.8450   20.7994 C   0  0  0  0  0  0  0  0  0  0  0  0
    3.0726   10.1043   19.8522 O   0  0  0  0  0  0  0  0  0  0  0  0
    5.5057    7.1196   21.1155 C   0  0  0  0  0  0  0  0  0  0  0  0
    7.0367   11.0229   21.9948 O   0  0  0  0  0  0  0  0  0  0  0  0
  1  8  4  0
  1 12  4  0
  2  9  1  0
  2 11  4  0
  2 25  4  0
  3 12  4  0
  3 14  1  0
  3 23  4  0
  4 13  4  0
  4 21  4  0
  4 24  1  0
  5  8  4  0
  5 23  4  0
  6 18  2  0
  7 15  4  0
  7 16  1  0
  7 27  4  0
  8 18  1  0
 10 18  1  0
 10 20  1  0
 11 15  4  0
 11 26  1  0
 13 22  4  0
 16 19  1  0
 16 20  2  0
 17 19  4  0
 17 21  4  0
 19 22  4  0
 20 28  1  0
 25 27  4  0
M  END
$$$$

 Created by Python create_sdf_string function

 28 30  0  0  0  0  0  0  0  0999 V2000
   11.4592   11.2893   18.7941 C   0  0  0  0  0  0  0  0  0  0  0  0
    3.4202    7.9009   20.3866 C   0  0  0  0  0  0  0  0  0  0  0  0
   13.5280   10.3522   19.3586 C   0  0  0  0  0  0  0  0  0  0  0  0
    9.6923    5.6468   22.7891 C   0  0  0  0  0  0  0  0  0  0  0  0
   11.7756   10.2554   20.8841 N   0  0  0  0  0  0  0  0  0  0  0  0
    8.9876   11.9370   19.8757 O   0  0  0  0  0  0  0  0  0  0  0  0
    6.0167    8.4478   21.1089 C   0  0  0  0  0  0  0  0  0  0  0  0
   11.0002   10.8890   20.0262 C   0  0  0  0  0  0  0  0  0  0  0  0
    2.1721    7.7393   20.0315 O   0  0  0  0  0  0  0  0  0  0  0  0
    9.1107   10.3880   21.3769 N   0  0  0  0  0  0  0  0  0  0  0  0
    3.9102    9.2008   20.3124 C   0  0  0  0  0  0  0  0  0  0  0  0
   12.7292   10.9960   18.4597 C   0  0  0  0  0  0  0  0  0  0  0  0
    9.3798    6.6793   23.6625 C   0  0  0  0  0  0  0  0  0  0  0  0
   14.7425   10.0739   19.0802 O   0  0  0  0  0  0  0  0  0  0  0  0
    5.1894    9.4673   20.7118 C   0  0  0  0  0  0  0  0  0  0  0  0
    7.3773    8.8224   21.4870 C   0  0  0  0  0  0  0  0  0  0  0  0
    8.4391    6.6439   21.0235 C   0  0  0  0  0  0  0  0  0  0  0  0
    9.6494   11.1353   20.4167 C   0  0  0  0  0  0  0  0  0  0  0  0
    8.1431    7.6829   21.9046 C   0  0  0  0  0  0  0  0  0  0  0  0
    7.7796   10.1314   21.5115 N   0  0  0  0  0  0  0  0  0  0  0  0
    9.2768    5.6183   21.4437 C   0  0  0  0  0  0  0  0  0  0  0  0
    8.6315    7.7322   23.1768 C   0  0  0  0  0  0  0  0  0  0  0  0
   13.0537    9.9821   20.5781 C   0  0  0  0  0  0  0  0  0  0  0  0
   10.3850    4.6575   23.2386 O   0  0  0  0  0  0  0  0  0  0  0  0
    4.2069    6.8450   20.7994 C   0  0  0  0  0  0  0  0  0  0  0  0
    3.0726   10.1043   19.8522 O   0  0  0  0  0  0  0  0  0  0  0  0
    5.5057    7.1196   21.1155 C   0  0  0  0  0  0  0  0  0  0  0  0
    7.0367   11.0229   21.9948 O   0  0  0  0  0  0  0  0  0  0  0  0
  1  8  4  0
  1 12  4  0
  2  9  1  0
  2 11  4  0
  2 25  4  0
  3 12  4  0
  3 14  1  0
  3 23  4  0
  4 13  4  0
  4 21  4  0
  4 24  1  0
  5  8  4  0
  5 23  4  0
  6 18  2  0
  7 15  4  0
  7 16  1  0
  7 27  4  0
  8 18  1  0
 10 18  1  0
 10 20  1  0
 11 15  4  0
 11 26  1  0
 13 22  4  0
 16 19  1  0
 16 20  2  0
 17 19  4  0
 17 21  4  0
 19 22  4  0
 20 28  1  0
 25 27  4  0
M  END
$$$$

 Created by Python create_sdf_string function

 28 30  0  0  0  0  0  0  0  0999 V2000
   11.4592   11.2893   18.7941 C   0  0  0  0  0  0  0  0  0  0  0  0
    3.4202    7.9009   20.3866 C   0  0  0  0  0  0  0  0  0  0  0  0
   13.5280   10.3522   19.3586 C   0  0  0  0  0  0  0  0  0  0  0  0
    9.6923    5.6468   22.7891 C   0  0  0  0  0  0  0  0  0  0  0  0
   11.7756   10.2554   20.8841 N   0  0  0  0  0  0  0  0  0  0  0  0
    8.9876   11.9370   19.8757 O   0  0  0  0  0  0  0  0  0  0  0  0
    6.0167    8.4478   21.1089 C   0  0  0  0  0  0  0  0  0  0  0  0
   11.0002   10.8890   20.0262 C   0  0  0  0  0  0  0  0  0  0  0  0
    2.1721    7.7393   20.0315 O   0  0  0  0  0  0  0  0  0  0  0  0
    9.1107   10.3880   21.3769 N   0  0  0  0  0  0  0  0  0  0  0  0
    3.9102    9.2008   20.3124 C   0  0  0  0  0  0  0  0  0  0  0  0
   12.7292   10.9960   18.4597 C   0  0  0  0  0  0  0  0  0  0  0  0
    9.3798    6.6793   23.6625 C   0  0  0  0  0  0  0  0  0  0  0  0
   14.7425   10.0739   19.0802 O   0  0  0  0  0  0  0  0  0  0  0  0
    5.1894    9.4673   20.7118 C   0  0  0  0  0  0  0  0  0  0  0  0
    7.3773    8.8224   21.4870 C   0  0  0  0  0  0  0  0  0  0  0  0
    8.4391    6.6439   21.0235 C   0  0  0  0  0  0  0  0  0  0  0  0
    9.6494   11.1353   20.4167 C   0  0  0  0  0  0  0  0  0  0  0  0
    8.1431    7.6829   21.9046 C   0  0  0  0  0  0  0  0  0  0  0  0
    7.7796   10.1314   21.5115 N   0  0  0  0  0  0  0  0  0  0  0  0
    9.2768    5.6183   21.4437 C   0  0  0  0  0  0  0  0  0  0  0  0
    8.6315    7.7322   23.1768 C   0  0  0  0  0  0  0  0  0  0  0  0
   13.0537    9.9821   20.5781 C   0  0  0  0  0  0  0  0  0  0  0  0
   10.3850    4.6575   23.2386 O   0  0  0  0  0  0  0  0  0  0  0  0
    4.2069    6.8450   20.7994 C   0  0  0  0  0  0  0  0  0  0  0  0
    3.0726   10.1043   19.8522 O   0  0  0  0  0  0  0  0  0  0  0  0
    5.5057    7.1196   21.1155 C   0  0  0  0  0  0  0  0  0  0  0  0
    7.0367   11.0229   21.9948 O   0  0  0  0  0  0  0  0  0  0  0  0
  1  8  4  0
  1 12  4  0
  2  9  1  0
  2 11  4  0
  2 25  4  0
  3 12  4  0
  3 14  1  0
  3 23  4  0
  4 13  4  0
  4 21  4  0
  4 24  1  0
  5  8  4  0
  5 23  4  0
  6 18  2  0
  7 15  4  0
  7 16  1  0
  7 27  4  0
  8 18  1  0
 10 18  1  0
 10 20  1  0
 11 15  4  0
 11 26  1  0
 13 22  4  0
 16 19  1  0
 16 20  2  0
 17 19  4  0
 17 21  4  0
 19 22  4  0
 20 28  1  0
 25 27  4  0
M  END
$$$$

 Created by Python create_sdf_string function

 28 30  0  0  0  0  0  0  0  0999 V2000
   11.4592   11.2893   18.7941 C   0  0  0  0  0  0  0  0  0  0  0  0
    3.4202    7.9009   20.3866 C   0  0  0  0  0  0  0  0  0  0  0  0
   13.5280   10.3522   19.3586 C   0  0  0  0  0  0  0  0  0  0  0  0
    9.6923    5.6468   22.7891 C   0  0  0  0  0  0  0  0  0  0  0  0
   11.7756   10.2554   20.8841 N   0  0  0  0  0  0  0  0  0  0  0  0
    8.9876   11.9370   19.8757 O   0  0  0  0  0  0  0  0  0  0  0  0
    6.0167    8.4478   21.1089 C   0  0  0  0  0  0  0  0  0  0  0  0
   11.0002   10.8890   20.0262 C   0  0  0  0  0  0  0  0  0  0  0  0
    2.1721    7.7393   20.0315 O   0  0  0  0  0  0  0  0  0  0  0  0
    9.1107   10.3880   21.3769 N   0  0  0  0  0  0  0  0  0  0  0  0
    3.9102    9.2008   20.3124 C   0  0  0  0  0  0  0  0  0  0  0  0
   12.7292   10.9960   18.4597 C   0  0  0  0  0  0  0  0  0  0  0  0
    9.3798    6.6793   23.6625 C   0  0  0  0  0  0  0  0  0  0  0  0
   14.7425   10.0739   19.0802 O   0  0  0  0  0  0  0  0  0  0  0  0
    5.1894    9.4673   20.7118 C   0  0  0  0  0  0  0  0  0  0  0  0
    7.3773    8.8224   21.4870 C   0  0  0  0  0  0  0  0  0  0  0  0
    8.4391    6.6439   21.0235 C   0  0  0  0  0  0  0  0  0  0  0  0
    9.6494   11.1353   20.4167 C   0  0  0  0  0  0  0  0  0  0  0  0
    8.1431    7.6829   21.9046 C   0  0  0  0  0  0  0  0  0  0  0  0
    7.7796   10.1314   21.5115 N   0  0  0  0  0  0  0  0  0  0  0  0
    9.2768    5.6183   21.4437 C   0  0  0  0  0  0  0  0  0  0  0  0
    8.6315    7.7322   23.1768 C   0  0  0  0  0  0  0  0  0  0  0  0
   13.0537    9.9821   20.5781 C   0  0  0  0  0  0  0  0  0  0  0  0
   10.3850    4.6575   23.2386 O   0  0  0  0  0  0  0  0  0  0  0  0
    4.2069    6.8450   20.7994 C   0  0  0  0  0  0  0  0  0  0  0  0
    3.0726   10.1043   19.8522 O   0  0  0  0  0  0  0  0  0  0  0  0
    5.5057    7.1196   21.1155 C   0  0  0  0  0  0  0  0  0  0  0  0
    7.0367   11.0229   21.9948 O   0  0  0  0  0  0  0  0  0  0  0  0
  1  8  4  0
  1 12  4  0
  2  9  1  0
  2 11  4  0
  2 25  4  0
  3 12  4  0
  3 14  1  0
  3 23  4  0
  4 13  4  0
  4 21  4  0
  4 24  1  0
  5  8  4  0
  5 23  4  0
  6 18  2  0
  7 15  4  0
  7 16  1  0
  7 27  4  0
  8 18  1  0
 10 18  1  0
 10 20  1  0
 11 15  4  0
 11 26  1  0
 13 22  4  0
 16 19  1  0
 16 20  2  0
 17 19  4  0
 17 21  4  0
 19 22  4  0
 20 28  1  0
 25 27  4  0
M  END
$$$$

 Created by Python create_sdf_string function

 28 30  0  0  0  0  0  0  0  0999 V2000
   11.4592   11.2893   18.7941 C   0  0  0  0  0  0  0  0  0  0  0  0
    3.4202    7.9009   20.3866 C   0  0  0  0  0  0  0  0  0  0  0  0
   13.5280   10.3522   19.3586 C   0  0  0  0  0  0  0  0  0  0  0  0
    9.6923    5.6468   22.7891 C   0  0  0  0  0  0  0  0  0  0  0  0
   11.7756   10.2554   20.8841 N   0  0  0  0  0  0  0  0  0  0  0  0
    8.9876   11.9370   19.8757 O   0  0  0  0  0  0  0  0  0  0  0  0
    6.0167    8.4478   21.1089 C   0  0  0  0  0  0  0  0  0  0  0  0
   11.0002   10.8890   20.0262 C   0  0  0  0  0  0  0  0  0  0  0  0
    2.1721    7.7393   20.0315 O   0  0  0  0  0  0  0  0  0  0  0  0
    9.1107   10.3880   21.3769 N   0  0  0  0  0  0  0  0  0  0  0  0
    3.9102    9.2008   20.3124 C   0  0  0  0  0  0  0  0  0  0  0  0
   12.7292   10.9960   18.4597 C   0  0  0  0  0  0  0  0  0  0  0  0
    9.3798    6.6793   23.6625 C   0  0  0  0  0  0  0  0  0  0  0  0
   14.7425   10.0739   19.0802 O   0  0  0  0  0  0  0  0  0  0  0  0
    5.1894    9.4673   20.7118 C   0  0  0  0  0  0  0  0  0  0  0  0
    7.3773    8.8224   21.4870 C   0  0  0  0  0  0  0  0  0  0  0  0
    8.4391    6.6439   21.0235 C   0  0  0  0  0  0  0  0  0  0  0  0
    9.6494   11.1353   20.4167 C   0  0  0  0  0  0  0  0  0  0  0  0
    8.1431    7.6829   21.9046 C   0  0  0  0  0  0  0  0  0  0  0  0
    7.7796   10.1314   21.5115 N   0  0  0  0  0  0  0  0  0  0  0  0
    9.2768    5.6183   21.4437 C   0  0  0  0  0  0  0  0  0  0  0  0
    8.6315    7.7322   23.1768 C   0  0  0  0  0  0  0  0  0  0  0  0
   13.0537    9.9821   20.5781 C   0  0  0  0  0  0  0  0  0  0  0  0
   10.3850    4.6575   23.2386 O   0  0  0  0  0  0  0  0  0  0  0  0
    4.2069    6.8450   20.7994 C   0  0  0  0  0  0  0  0  0  0  0  0
    3.0726   10.1043   19.8522 O   0  0  0  0  0  0  0  0  0  0  0  0
    5.5057    7.1196   21.1155 C   0  0  0  0  0  0  0  0  0  0  0  0
    7.0367   11.0229   21.9948 O   0  0  0  0  0  0  0  0  0  0  0  0
  1  8  4  0
  1 12  4  0
  2  9  1  0
  2 11  4  0
  2 25  4  0
  3 12  4  0
  3 14  1  0
  3 23  4  0
  4 13  4  0
  4 21  4  0
  4 24  1  0
  5  8  4  0
  5 23  4  0
  6 18  2  0
  7 15  4  0
  7 16  1  0
  7 27  4  0
  8 18  1  0
 10 18  1  0
 10 20  1  0
 11 15  4  0
 11 26  1  0
 13 22  4  0
 16 19  1  0
 16 20  2  0
 17 19  4  0
 17 21  4  0
 19 22  4  0
 20 28  1  0
 25 27  4  0
M  END
$$$$

 Created by Python create_sdf_string function

 28 30  0  0  0  0  0  0  0  0999 V2000
   11.4592   11.2893   18.7941 C   0  0  0  0  0  0  0  0  0  0  0  0
    3.4202    7.9009   20.3866 C   0  0  0  0  0  0  0  0  0  0  0  0
   13.5280   10.3522   19.3586 C   0  0  0  0  0  0  0  0  0  0  0  0
    9.6923    5.6468   22.7891 C   0  0  0  0  0  0  0  0  0  0  0  0
   11.7756   10.2554   20.8841 N   0  0  0  0  0  0  0  0  0  0  0  0
    8.9876   11.9370   19.8757 O   0  0  0  0  0  0  0  0  0  0  0  0
    6.0167    8.4478   21.1089 C   0  0  0  0  0  0  0  0  0  0  0  0
   11.0002   10.8890   20.0262 C   0  0  0  0  0  0  0  0  0  0  0  0
    2.1721    7.7393   20.0315 O   0  0  0  0  0  0  0  0  0  0  0  0
    9.1107   10.3880   21.3769 N   0  0  0  0  0  0  0  0  0  0  0  0
    3.9102    9.2008   20.3124 C   0  0  0  0  0  0  0  0  0  0  0  0
   12.7292   10.9960   18.4597 C   0  0  0  0  0  0  0  0  0  0  0  0
    9.3798    6.6793   23.6625 C   0  0  0  0  0  0  0  0  0  0  0  0
   14.7425   10.0739   19.0802 O   0  0  0  0  0  0  0  0  0  0  0  0
    5.1894    9.4673   20.7118 C   0  0  0  0  0  0  0  0  0  0  0  0
    7.3773    8.8224   21.4870 C   0  0  0  0  0  0  0  0  0  0  0  0
    8.4391    6.6439   21.0235 C   0  0  0  0  0  0  0  0  0  0  0  0
    9.6494   11.1353   20.4167 C   0  0  0  0  0  0  0  0  0  0  0  0
    8.1431    7.6829   21.9046 C   0  0  0  0  0  0  0  0  0  0  0  0
    7.7796   10.1314   21.5115 N   0  0  0  0  0  0  0  0  0  0  0  0
    9.2768    5.6183   21.4437 C   0  0  0  0  0  0  0  0  0  0  0  0
    8.6315    7.7322   23.1768 C   0  0  0  0  0  0  0  0  0  0  0  0
   13.0537    9.9821   20.5781 C   0  0  0  0  0  0  0  0  0  0  0  0
   10.3850    4.6575   23.2386 O   0  0  0  0  0  0  0  0  0  0  0  0
    4.2069    6.8450   20.7994 C   0  0  0  0  0  0  0  0  0  0  0  0
    3.0726   10.1043   19.8522 O   0  0  0  0  0  0  0  0  0  0  0  0
    5.5057    7.1196   21.1155 C   0  0  0  0  0  0  0  0  0  0  0  0
    7.0367   11.0229   21.9948 O   0  0  0  0  0  0  0  0  0  0  0  0
  1  8  4  0
  1 12  4  0
  2  9  1  0
  2 11  4  0
  2 25  4  0
  3 12  4  0
  3 14  1  0
  3 23  4  0
  4 13  4  0
  4 21  4  0
  4 24  1  0
  5  8  4  0
  5 23  4  0
  6 18  2  0
  7 15  4  0
  7 16  1  0
  7 27  4  0
  8 18  1  0
 10 18  1  0
 10 20  1  0
 11 15  4  0
 11 26  1  0
 13 22  4  0
 16 19  1  0
 16 20  2  0
 17 19  4  0
 17 21  4  0
 19 22  4  0
 20 28  1  0
 25 27  4  0
M  END
$$$$

 Created by Python create_sdf_string function

 28 30  0  0  0  0  0  0  0  0999 V2000
   11.4592   11.2893   18.7941 C   0  0  0  0  0  0  0  0  0  0  0  0
    3.4202    7.9009   20.3866 C   0  0  0  0  0  0  0  0  0  0  0  0
   13.5280   10.3522   19.3586 C   0  0  0  0  0  0  0  0  0  0  0  0
    9.6923    5.6468   22.7891 C   0  0  0  0  0  0  0  0  0  0  0  0
   11.7756   10.2554   20.8841 N   0  0  0  0  0  0  0  0  0  0  0  0
    8.9876   11.9370   19.8757 O   0  0  0  0  0  0  0  0  0  0  0  0
    6.0167    8.4478   21.1089 C   0  0  0  0  0  0  0  0  0  0  0  0
   11.0002   10.8890   20.0262 C   0  0  0  0  0  0  0  0  0  0  0  0
    2.1721    7.7393   20.0315 O   0  0  0  0  0  0  0  0  0  0  0  0
    9.1107   10.3880   21.3769 N   0  0  0  0  0  0  0  0  0  0  0  0
    3.9102    9.2008   20.3124 C   0  0  0  0  0  0  0  0  0  0  0  0
   12.7292   10.9960   18.4597 C   0  0  0  0  0  0  0  0  0  0  0  0
    9.3798    6.6793   23.6625 C   0  0  0  0  0  0  0  0  0  0  0  0
   14.7425   10.0739   19.0802 O   0  0  0  0  0  0  0  0  0  0  0  0
    5.1894    9.4673   20.7118 C   0  0  0  0  0  0  0  0  0  0  0  0
    7.3773    8.8224   21.4870 C   0  0  0  0  0  0  0  0  0  0  0  0
    8.4391    6.6439   21.0235 C   0  0  0  0  0  0  0  0  0  0  0  0
    9.6494   11.1353   20.4167 C   0  0  0  0  0  0  0  0  0  0  0  0
    8.1431    7.6829   21.9046 C   0  0  0  0  0  0  0  0  0  0  0  0
    7.7796   10.1314   21.5115 N   0  0  0  0  0  0  0  0  0  0  0  0
    9.2768    5.6183   21.4437 C   0  0  0  0  0  0  0  0  0  0  0  0
    8.6315    7.7322   23.1768 C   0  0  0  0  0  0  0  0  0  0  0  0
   13.0537    9.9821   20.5781 C   0  0  0  0  0  0  0  0  0  0  0  0
   10.3850    4.6575   23.2386 O   0  0  0  0  0  0  0  0  0  0  0  0
    4.2069    6.8450   20.7994 C   0  0  0  0  0  0  0  0  0  0  0  0
    3.0726   10.1043   19.8522 O   0  0  0  0  0  0  0  0  0  0  0  0
    5.5057    7.1196   21.1155 C   0  0  0  0  0  0  0  0  0  0  0  0
    7.0367   11.0229   21.9948 O   0  0  0  0  0  0  0  0  0  0  0  0
  1  8  4  0
  1 12  4  0
  2  9  1  0
  2 11  4  0
  2 25  4  0
  3 12  4  0
  3 14  1  0
  3 23  4  0
  4 13  4  0
  4 21  4  0
  4 24  1  0
  5  8  4  0
  5 23  4  0
  6 18  2  0
  7 15  4  0
  7 16  1  0
  7 27  4  0
  8 18  1  0
 10 18  1  0
 10 20  1  0
 11 15  4  0
 11 26  1  0
 13 22  4  0
 16 19  1  0
 16 20  2  0
 17 19  4  0
 17 21  4  0
 19 22  4  0
 20 28  1  0
 25 27  4  0
M  END
$$$$

 Created by Python create_sdf_string function

 28 30  0  0  0  0  0  0  0  0999 V2000
   11.4592   11.2893   18.7941 C   0  0  0  0  0  0  0  0  0  0  0  0
    3.4202    7.9009   20.3866 C   0  0  0  0  0  0  0  0  0  0  0  0
   13.5280   10.3522   19.3586 C   0  0  0  0  0  0  0  0  0  0  0  0
    9.6923    5.6468   22.7891 C   0  0  0  0  0  0  0  0  0  0  0  0
   11.7756   10.2554   20.8841 N   0  0  0  0  0  0  0  0  0  0  0  0
    8.9876   11.9370   19.8757 O   0  0  0  0  0  0  0  0  0  0  0  0
    6.0167    8.4478   21.1089 C   0  0  0  0  0  0  0  0  0  0  0  0
   11.0002   10.8890   20.0262 C   0  0  0  0  0  0  0  0  0  0  0  0
    2.1721    7.7393   20.0315 O   0  0  0  0  0  0  0  0  0  0  0  0
    9.1107   10.3880   21.3769 N   0  0  0  0  0  0  0  0  0  0  0  0
    3.9102    9.2008   20.3124 C   0  0  0  0  0  0  0  0  0  0  0  0
   12.7292   10.9960   18.4597 C   0  0  0  0  0  0  0  0  0  0  0  0
    9.3798    6.6793   23.6625 C   0  0  0  0  0  0  0  0  0  0  0  0
   14.7425   10.0739   19.0802 O   0  0  0  0  0  0  0  0  0  0  0  0
    5.1894    9.4673   20.7118 C   0  0  0  0  0  0  0  0  0  0  0  0
    7.3773    8.8224   21.4870 C   0  0  0  0  0  0  0  0  0  0  0  0
    8.4391    6.6439   21.0235 C   0  0  0  0  0  0  0  0  0  0  0  0
    9.6494   11.1353   20.4167 C   0  0  0  0  0  0  0  0  0  0  0  0
    8.1431    7.6829   21.9046 C   0  0  0  0  0  0  0  0  0  0  0  0
    7.7796   10.1314   21.5115 N   0  0  0  0  0  0  0  0  0  0  0  0
    9.2768    5.6183   21.4437 C   0  0  0  0  0  0  0  0  0  0  0  0
    8.6315    7.7322   23.1768 C   0  0  0  0  0  0  0  0  0  0  0  0
   13.0537    9.9821   20.5781 C   0  0  0  0  0  0  0  0  0  0  0  0
   10.3850    4.6575   23.2386 O   0  0  0  0  0  0  0  0  0  0  0  0
    4.2069    6.8450   20.7994 C   0  0  0  0  0  0  0  0  0  0  0  0
    3.0726   10.1043   19.8522 O   0  0  0  0  0  0  0  0  0  0  0  0
    5.5057    7.1196   21.1155 C   0  0  0  0  0  0  0  0  0  0  0  0
    7.0367   11.0229   21.9948 O   0  0  0  0  0  0  0  0  0  0  0  0
  1  8  4  0
  1 12  4  0
  2  9  1  0
  2 11  4  0
  2 25  4  0
  3 12  4  0
  3 14  1  0
  3 23  4  0
  4 13  4  0
  4 21  4  0
  4 24  1  0
  5  8  4  0
  5 23  4  0
  6 18  2  0
  7 15  4  0
  7 16  1  0
  7 27  4  0
  8 18  1  0
 10 18  1  0
 10 20  1  0
 11 15  4  0
 11 26  1  0
 13 22  4  0
 16 19  1  0
 16 20  2  0
 17 19  4  0
 17 21  4  0
 19 22  4  0
 20 28  1  0
 25 27  4  0
M  END
$$$$

 Created by Python create_sdf_string function

 28 30  0  0  0  0  0  0  0  0999 V2000
   11.4592   11.2893   18.7941 C   0  0  0  0  0  0  0  0  0  0  0  0
    3.4202    7.9009   20.3866 C   0  0  0  0  0  0  0  0  0  0  0  0
   13.5280   10.3522   19.3586 C   0  0  0  0  0  0  0  0  0  0  0  0
    9.6923    5.6468   22.7891 C   0  0  0  0  0  0  0  0  0  0  0  0
   11.7756   10.2554   20.8841 N   0  0  0  0  0  0  0  0  0  0  0  0
    8.9876   11.9370   19.8757 O   0  0  0  0  0  0  0  0  0  0  0  0
    6.0167    8.4478   21.1089 C   0  0  0  0  0  0  0  0  0  0  0  0
   11.0002   10.8890   20.0262 C   0  0  0  0  0  0  0  0  0  0  0  0
    2.1721    7.7393   20.0315 O   0  0  0  0  0  0  0  0  0  0  0  0
    9.1107   10.3880   21.3769 N   0  0  0  0  0  0  0  0  0  0  0  0
    3.9102    9.2008   20.3124 C   0  0  0  0  0  0  0  0  0  0  0  0
   12.7292   10.9960   18.4597 C   0  0  0  0  0  0  0  0  0  0  0  0
    9.3798    6.6793   23.6625 C   0  0  0  0  0  0  0  0  0  0  0  0
   14.7425   10.0739   19.0802 O   0  0  0  0  0  0  0  0  0  0  0  0
    5.1894    9.4673   20.7118 C   0  0  0  0  0  0  0  0  0  0  0  0
    7.3773    8.8224   21.4870 C   0  0  0  0  0  0  0  0  0  0  0  0
    8.4391    6.6439   21.0235 C   0  0  0  0  0  0  0  0  0  0  0  0
    9.6494   11.1353   20.4167 C   0  0  0  0  0  0  0  0  0  0  0  0
    8.1431    7.6829   21.9046 C   0  0  0  0  0  0  0  0  0  0  0  0
    7.7796   10.1314   21.5115 N   0  0  0  0  0  0  0  0  0  0  0  0
    9.2768    5.6183   21.4437 C   0  0  0  0  0  0  0  0  0  0  0  0
    8.6315    7.7322   23.1768 C   0  0  0  0  0  0  0  0  0  0  0  0
   13.0537    9.9821   20.5781 C   0  0  0  0  0  0  0  0  0  0  0  0
   10.3850    4.6575   23.2386 O   0  0  0  0  0  0  0  0  0  0  0  0
    4.2069    6.8450   20.7994 C   0  0  0  0  0  0  0  0  0  0  0  0
    3.0726   10.1043   19.8522 O   0  0  0  0  0  0  0  0  0  0  0  0
    5.5057    7.1196   21.1155 C   0  0  0  0  0  0  0  0  0  0  0  0
    7.0367   11.0229   21.9948 O   0  0  0  0  0  0  0  0  0  0  0  0
  1  8  4  0
  1 12  4  0
  2  9  1  0
  2 11  4  0
  2 25  4  0
  3 12  4  0
  3 14  1  0
  3 23  4  0
  4 13  4  0
  4 21  4  0
  4 24  1  0
  5  8  4  0
  5 23  4  0
  6 18  2  0
  7 15  4  0
  7 16  1  0
  7 27  4  0
  8 18  1  0
 10 18  1  0
 10 20  1  0
 11 15  4  0
 11 26  1  0
 13 22  4  0
 16 19  1  0
 16 20  2  0
 17 19  4  0
 17 21  4  0
 19 22  4  0
 20 28  1  0
 25 27  4  0
M  END
$$$$

 Created by Python create_sdf_string function

 28 30  0  0  0  0  0  0  0  0999 V2000
   11.4592   11.2893   18.7941 C   0  0  0  0  0  0  0  0  0  0  0  0
    3.4202    7.9009   20.3866 C   0  0  0  0  0  0  0  0  0  0  0  0
   13.5280   10.3522   19.3586 C   0  0  0  0  0  0  0  0  0  0  0  0
    9.6923    5.6468   22.7891 C   0  0  0  0  0  0  0  0  0  0  0  0
   11.7756   10.2554   20.8841 N   0  0  0  0  0  0  0  0  0  0  0  0
    8.9876   11.9370   19.8757 O   0  0  0  0  0  0  0  0  0  0  0  0
    6.0167    8.4478   21.1089 C   0  0  0  0  0  0  0  0  0  0  0  0
   11.0002   10.8890   20.0262 C   0  0  0  0  0  0  0  0  0  0  0  0
    2.1721    7.7393   20.0315 O   0  0  0  0  0  0  0  0  0  0  0  0
    9.1107   10.3880   21.3769 N   0  0  0  0  0  0  0  0  0  0  0  0
    3.9102    9.2008   20.3124 C   0  0  0  0  0  0  0  0  0  0  0  0
   12.7292   10.9960   18.4597 C   0  0  0  0  0  0  0  0  0  0  0  0
    9.3798    6.6793   23.6625 C   0  0  0  0  0  0  0  0  0  0  0  0
   14.7425   10.0739   19.0802 O   0  0  0  0  0  0  0  0  0  0  0  0
    5.1894    9.4673   20.7118 C   0  0  0  0  0  0  0  0  0  0  0  0
    7.3773    8.8224   21.4870 C   0  0  0  0  0  0  0  0  0  0  0  0
    8.4391    6.6439   21.0235 C   0  0  0  0  0  0  0  0  0  0  0  0
    9.6494   11.1353   20.4167 C   0  0  0  0  0  0  0  0  0  0  0  0
    8.1431    7.6829   21.9046 C   0  0  0  0  0  0  0  0  0  0  0  0
    7.7796   10.1314   21.5115 N   0  0  0  0  0  0  0  0  0  0  0  0
    9.2768    5.6183   21.4437 C   0  0  0  0  0  0  0  0  0  0  0  0
    8.6315    7.7322   23.1768 C   0  0  0  0  0  0  0  0  0  0  0  0
   13.0537    9.9821   20.5781 C   0  0  0  0  0  0  0  0  0  0  0  0
   10.3850    4.6575   23.2386 O   0  0  0  0  0  0  0  0  0  0  0  0
    4.2069    6.8450   20.7994 C   0  0  0  0  0  0  0  0  0  0  0  0
    3.0726   10.1043   19.8522 O   0  0  0  0  0  0  0  0  0  0  0  0
    5.5057    7.1196   21.1155 C   0  0  0  0  0  0  0  0  0  0  0  0
    7.0367   11.0229   21.9948 O   0  0  0  0  0  0  0  0  0  0  0  0
  1  8  4  0
  1 12  4  0
  2  9  1  0
  2 11  4  0
  2 25  4  0
  3 12  4  0
  3 14  1  0
  3 23  4  0
  4 13  4  0
  4 21  4  0
  4 24  1  0
  5  8  4  0
  5 23  4  0
  6 18  2  0
  7 15  4  0
  7 16  1  0
  7 27  4  0
  8 18  1  0
 10 18  1  0
 10 20  1  0
 11 15  4  0
 11 26  1  0
 13 22  4  0
 16 19  1  0
 16 20  2  0
 17 19  4  0
 17 21  4  0
 19 22  4  0
 20 28  1  0
 25 27  4  0
M  END
$$$$

 Created by Python create_sdf_string function

 28 30  0  0  0  0  0  0  0  0999 V2000
   11.4592   11.2893   18.7941 C   0  0  0  0  0  0  0  0  0  0  0  0
    3.4202    7.9009   20.3866 C   0  0  0  0  0  0  0  0  0  0  0  0
   13.5280   10.3522   19.3586 C   0  0  0  0  0  0  0  0  0  0  0  0
    9.6923    5.6468   22.7891 C   0  0  0  0  0  0  0  0  0  0  0  0
   11.7756   10.2554   20.8841 N   0  0  0  0  0  0  0  0  0  0  0  0
    8.9876   11.9370   19.8757 O   0  0  0  0  0  0  0  0  0  0  0  0
    6.0167    8.4478   21.1089 C   0  0  0  0  0  0  0  0  0  0  0  0
   11.0002   10.8890   20.0262 C   0  0  0  0  0  0  0  0  0  0  0  0
    2.1721    7.7393   20.0315 O   0  0  0  0  0  0  0  0  0  0  0  0
    9.1107   10.3880   21.3769 N   0  0  0  0  0  0  0  0  0  0  0  0
    3.9102    9.2008   20.3124 C   0  0  0  0  0  0  0  0  0  0  0  0
   12.7292   10.9960   18.4597 C   0  0  0  0  0  0  0  0  0  0  0  0
    9.3798    6.6793   23.6625 C   0  0  0  0  0  0  0  0  0  0  0  0
   14.7425   10.0739   19.0802 O   0  0  0  0  0  0  0  0  0  0  0  0
    5.1894    9.4673   20.7118 C   0  0  0  0  0  0  0  0  0  0  0  0
    7.3773    8.8224   21.4870 C   0  0  0  0  0  0  0  0  0  0  0  0
    8.4391    6.6439   21.0235 C   0  0  0  0  0  0  0  0  0  0  0  0
    9.6494   11.1353   20.4167 C   0  0  0  0  0  0  0  0  0  0  0  0
    8.1431    7.6829   21.9046 C   0  0  0  0  0  0  0  0  0  0  0  0
    7.7796   10.1314   21.5115 N   0  0  0  0  0  0  0  0  0  0  0  0
    9.2768    5.6183   21.4437 C   0  0  0  0  0  0  0  0  0  0  0  0
    8.6315    7.7322   23.1768 C   0  0  0  0  0  0  0  0  0  0  0  0
   13.0537    9.9821   20.5781 C   0  0  0  0  0  0  0  0  0  0  0  0
   10.3850    4.6575   23.2386 O   0  0  0  0  0  0  0  0  0  0  0  0
    4.2069    6.8450   20.7994 C   0  0  0  0  0  0  0  0  0  0  0  0
    3.0726   10.1043   19.8522 O   0  0  0  0  0  0  0  0  0  0  0  0
    5.5057    7.1196   21.1155 C   0  0  0  0  0  0  0  0  0  0  0  0
    7.0367   11.0229   21.9948 O   0  0  0  0  0  0  0  0  0  0  0  0
  1  8  4  0
  1 12  4  0
  2  9  1  0
  2 11  4  0
  2 25  4  0
  3 12  4  0
  3 14  1  0
  3 23  4  0
  4 13  4  0
  4 21  4  0
  4 24  1  0
  5  8  4  0
  5 23  4  0
  6 18  2  0
  7 15  4  0
  7 16  1  0
  7 27  4  0
  8 18  1  0
 10 18  1  0
 10 20  1  0
 11 15  4  0
 11 26  1  0
 13 22  4  0
 16 19  1  0
 16 20  2  0
 17 19  4  0
 17 21  4  0
 19 22  4  0
 20 28  1  0
 25 27  4  0
M  END
$$$$

 Created by Python create_sdf_string function

 28 30  0  0  0  0  0  0  0  0999 V2000
   11.4592   11.2893   18.7941 C   0  0  0  0  0  0  0  0  0  0  0  0
    3.4202    7.9009   20.3866 C   0  0  0  0  0  0  0  0  0  0  0  0
   13.5280   10.3522   19.3586 C   0  0  0  0  0  0  0  0  0  0  0  0
    9.6923    5.6468   22.7891 C   0  0  0  0  0  0  0  0  0  0  0  0
   11.7756   10.2554   20.8841 N   0  0  0  0  0  0  0  0  0  0  0  0
    8.9876   11.9370   19.8757 O   0  0  0  0  0  0  0  0  0  0  0  0
    6.0167    8.4478   21.1089 C   0  0  0  0  0  0  0  0  0  0  0  0
   11.0002   10.8890   20.0262 C   0  0  0  0  0  0  0  0  0  0  0  0
    2.1721    7.7393   20.0315 O   0  0  0  0  0  0  0  0  0  0  0  0
    9.1107   10.3880   21.3769 N   0  0  0  0  0  0  0  0  0  0  0  0
    3.9102    9.2008   20.3124 C   0  0  0  0  0  0  0  0  0  0  0  0
   12.7292   10.9960   18.4597 C   0  0  0  0  0  0  0  0  0  0  0  0
    9.3798    6.6793   23.6625 C   0  0  0  0  0  0  0  0  0  0  0  0
   14.7425   10.0739   19.0802 O   0  0  0  0  0  0  0  0  0  0  0  0
    5.1894    9.4673   20.7118 C   0  0  0  0  0  0  0  0  0  0  0  0
    7.3773    8.8224   21.4870 C   0  0  0  0  0  0  0  0  0  0  0  0
    8.4391    6.6439   21.0235 C   0  0  0  0  0  0  0  0  0  0  0  0
    9.6494   11.1353   20.4167 C   0  0  0  0  0  0  0  0  0  0  0  0
    8.1431    7.6829   21.9046 C   0  0  0  0  0  0  0  0  0  0  0  0
    7.7796   10.1314   21.5115 N   0  0  0  0  0  0  0  0  0  0  0  0
    9.2768    5.6183   21.4437 C   0  0  0  0  0  0  0  0  0  0  0  0
    8.6315    7.7322   23.1768 C   0  0  0  0  0  0  0  0  0  0  0  0
   13.0537    9.9821   20.5781 C   0  0  0  0  0  0  0  0  0  0  0  0
   10.3850    4.6575   23.2386 O   0  0  0  0  0  0  0  0  0  0  0  0
    4.2069    6.8450   20.7994 C   0  0  0  0  0  0  0  0  0  0  0  0
    3.0726   10.1043   19.8522 O   0  0  0  0  0  0  0  0  0  0  0  0
    5.5057    7.1196   21.1155 C   0  0  0  0  0  0  0  0  0  0  0  0
    7.0367   11.0229   21.9948 O   0  0  0  0  0  0  0  0  0  0  0  0
  1  8  4  0
  1 12  4  0
  2  9  1  0
  2 11  4  0
  2 25  4  0
  3 12  4  0
  3 14  1  0
  3 23  4  0
  4 13  4  0
  4 21  4  0
  4 24  1  0
  5  8  4  0
  5 23  4  0
  6 18  2  0
  7 15  4  0
  7 16  1  0
  7 27  4  0
  8 18  1  0
 10 18  1  0
 10 20  1  0
 11 15  4  0
 11 26  1  0
 13 22  4  0
 16 19  1  0
 16 20  2  0
 17 19  4  0
 17 21  4  0
 19 22  4  0
 20 28  1  0
 25 27  4  0
M  END
$$$$

 Created by Python create_sdf_string function

 28 30  0  0  0  0  0  0  0  0999 V2000
   11.4592   11.2893   18.7941 C   0  0  0  0  0  0  0  0  0  0  0  0
    3.4202    7.9009   20.3866 C   0  0  0  0  0  0  0  0  0  0  0  0
   13.5280   10.3522   19.3586 C   0  0  0  0  0  0  0  0  0  0  0  0
    9.6923    5.6468   22.7891 C   0  0  0  0  0  0  0  0  0  0  0  0
   11.7756   10.2554   20.8841 N   0  0  0  0  0  0  0  0  0  0  0  0
    8.9876   11.9370   19.8757 O   0  0  0  0  0  0  0  0  0  0  0  0
    6.0167    8.4478   21.1089 C   0  0  0  0  0  0  0  0  0  0  0  0
   11.0002   10.8890   20.0262 C   0  0  0  0  0  0  0  0  0  0  0  0
    2.1721    7.7393   20.0315 O   0  0  0  0  0  0  0  0  0  0  0  0
    9.1107   10.3880   21.3769 N   0  0  0  0  0  0  0  0  0  0  0  0
    3.9102    9.2008   20.3124 C   0  0  0  0  0  0  0  0  0  0  0  0
   12.7292   10.9960   18.4597 C   0  0  0  0  0  0  0  0  0  0  0  0
    9.3798    6.6793   23.6625 C   0  0  0  0  0  0  0  0  0  0  0  0
   14.7425   10.0739   19.0802 O   0  0  0  0  0  0  0  0  0  0  0  0
    5.1894    9.4673   20.7118 C   0  0  0  0  0  0  0  0  0  0  0  0
    7.3773    8.8224   21.4870 C   0  0  0  0  0  0  0  0  0  0  0  0
    8.4391    6.6439   21.0235 C   0  0  0  0  0  0  0  0  0  0  0  0
    9.6494   11.1353   20.4167 C   0  0  0  0  0  0  0  0  0  0  0  0
    8.1431    7.6829   21.9046 C   0  0  0  0  0  0  0  0  0  0  0  0
    7.7796   10.1314   21.5115 N   0  0  0  0  0  0  0  0  0  0  0  0
    9.2768    5.6183   21.4437 C   0  0  0  0  0  0  0  0  0  0  0  0
    8.6315    7.7322   23.1768 C   0  0  0  0  0  0  0  0  0  0  0  0
   13.0537    9.9821   20.5781 C   0  0  0  0  0  0  0  0  0  0  0  0
   10.3850    4.6575   23.2386 O   0  0  0  0  0  0  0  0  0  0  0  0
    4.2069    6.8450   20.7994 C   0  0  0  0  0  0  0  0  0  0  0  0
    3.0726   10.1043   19.8522 O   0  0  0  0  0  0  0  0  0  0  0  0
    5.5057    7.1196   21.1155 C   0  0  0  0  0  0  0  0  0  0  0  0
    7.0367   11.0229   21.9948 O   0  0  0  0  0  0  0  0  0  0  0  0
  1  8  4  0
  1 12  4  0
  2  9  1  0
  2 11  4  0
  2 25  4  0
  3 12  4  0
  3 14  1  0
  3 23  4  0
  4 13  4  0
  4 21  4  0
  4 24  1  0
  5  8  4  0
  5 23  4  0
  6 18  2  0
  7 15  4  0
  7 16  1  0
  7 27  4  0
  8 18  1  0
 10 18  1  0
 10 20  1  0
 11 15  4  0
 11 26  1  0
 13 22  4  0
 16 19  1  0
 16 20  2  0
 17 19  4  0
 17 21  4  0
 19 22  4  0
 20 28  1  0
 25 27  4  0
M  END
$$$$

 Created by Python create_sdf_string function

 28 30  0  0  0  0  0  0  0  0999 V2000
   11.4592   11.2893   18.7941 C   0  0  0  0  0  0  0  0  0  0  0  0
    3.4202    7.9009   20.3866 C   0  0  0  0  0  0  0  0  0  0  0  0
   13.5280   10.3522   19.3586 C   0  0  0  0  0  0  0  0  0  0  0  0
    9.6923    5.6468   22.7891 C   0  0  0  0  0  0  0  0  0  0  0  0
   11.7756   10.2554   20.8841 N   0  0  0  0  0  0  0  0  0  0  0  0
    8.9876   11.9370   19.8757 O   0  0  0  0  0  0  0  0  0  0  0  0
    6.0167    8.4478   21.1089 C   0  0  0  0  0  0  0  0  0  0  0  0
   11.0002   10.8890   20.0262 C   0  0  0  0  0  0  0  0  0  0  0  0
    2.1721    7.7393   20.0315 O   0  0  0  0  0  0  0  0  0  0  0  0
    9.1107   10.3880   21.3769 N   0  0  0  0  0  0  0  0  0  0  0  0
    3.9102    9.2008   20.3124 C   0  0  0  0  0  0  0  0  0  0  0  0
   12.7292   10.9960   18.4597 C   0  0  0  0  0  0  0  0  0  0  0  0
    9.3798    6.6793   23.6625 C   0  0  0  0  0  0  0  0  0  0  0  0
   14.7425   10.0739   19.0802 O   0  0  0  0  0  0  0  0  0  0  0  0
    5.1894    9.4673   20.7118 C   0  0  0  0  0  0  0  0  0  0  0  0
    7.3773    8.8224   21.4870 C   0  0  0  0  0  0  0  0  0  0  0  0
    8.4391    6.6439   21.0235 C   0  0  0  0  0  0  0  0  0  0  0  0
    9.6494   11.1353   20.4167 C   0  0  0  0  0  0  0  0  0  0  0  0
    8.1431    7.6829   21.9046 C   0  0  0  0  0  0  0  0  0  0  0  0
    7.7796   10.1314   21.5115 N   0  0  0  0  0  0  0  0  0  0  0  0
    9.2768    5.6183   21.4437 C   0  0  0  0  0  0  0  0  0  0  0  0
    8.6315    7.7322   23.1768 C   0  0  0  0  0  0  0  0  0  0  0  0
   13.0537    9.9821   20.5781 C   0  0  0  0  0  0  0  0  0  0  0  0
   10.3850    4.6575   23.2386 O   0  0  0  0  0  0  0  0  0  0  0  0
    4.2069    6.8450   20.7994 C   0  0  0  0  0  0  0  0  0  0  0  0
    3.0726   10.1043   19.8522 O   0  0  0  0  0  0  0  0  0  0  0  0
    5.5057    7.1196   21.1155 C   0  0  0  0  0  0  0  0  0  0  0  0
    7.0367   11.0229   21.9948 O   0  0  0  0  0  0  0  0  0  0  0  0
  1  8  4  0
  1 12  4  0
  2  9  1  0
  2 11  4  0
  2 25  4  0
  3 12  4  0
  3 14  1  0
  3 23  4  0
  4 13  4  0
  4 21  4  0
  4 24  1  0
  5  8  4  0
  5 23  4  0
  6 18  2  0
  7 15  4  0
  7 16  1  0
  7 27  4  0
  8 18  1  0
 10 18  1  0
 10 20  1  0
 11 15  4  0
 11 26  1  0
 13 22  4  0
 16 19  1  0
 16 20  2  0
 17 19  4  0
 17 21  4  0
 19 22  4  0
 20 28  1  0
 25 27  4  0
M  END
$$$$

 Created by Python create_sdf_string function

 28 30  0  0  0  0  0  0  0  0999 V2000
   11.4592   11.2893   18.7941 C   0  0  0  0  0  0  0  0  0  0  0  0
    3.4202    7.9009   20.3866 C   0  0  0  0  0  0  0  0  0  0  0  0
   13.5280   10.3522   19.3586 C   0  0  0  0  0  0  0  0  0  0  0  0
    9.6923    5.6468   22.7891 C   0  0  0  0  0  0  0  0  0  0  0  0
   11.7756   10.2554   20.8841 N   0  0  0  0  0  0  0  0  0  0  0  0
    8.9876   11.9370   19.8757 O   0  0  0  0  0  0  0  0  0  0  0  0
    6.0167    8.4478   21.1089 C   0  0  0  0  0  0  0  0  0  0  0  0
   11.0002   10.8890   20.0262 C   0  0  0  0  0  0  0  0  0  0  0  0
    2.1721    7.7393   20.0315 O   0  0  0  0  0  0  0  0  0  0  0  0
    9.1107   10.3880   21.3769 N   0  0  0  0  0  0  0  0  0  0  0  0
    3.9102    9.2008   20.3124 C   0  0  0  0  0  0  0  0  0  0  0  0
   12.7292   10.9960   18.4597 C   0  0  0  0  0  0  0  0  0  0  0  0
    9.3798    6.6793   23.6625 C   0  0  0  0  0  0  0  0  0  0  0  0
   14.7425   10.0739   19.0802 O   0  0  0  0  0  0  0  0  0  0  0  0
    5.1894    9.4673   20.7118 C   0  0  0  0  0  0  0  0  0  0  0  0
    7.3773    8.8224   21.4870 C   0  0  0  0  0  0  0  0  0  0  0  0
    8.4391    6.6439   21.0235 C   0  0  0  0  0  0  0  0  0  0  0  0
    9.6494   11.1353   20.4167 C   0  0  0  0  0  0  0  0  0  0  0  0
    8.1431    7.6829   21.9046 C   0  0  0  0  0  0  0  0  0  0  0  0
    7.7796   10.1314   21.5115 N   0  0  0  0  0  0  0  0  0  0  0  0
    9.2768    5.6183   21.4437 C   0  0  0  0  0  0  0  0  0  0  0  0
    8.6315    7.7322   23.1768 C   0  0  0  0  0  0  0  0  0  0  0  0
   13.0537    9.9821   20.5781 C   0  0  0  0  0  0  0  0  0  0  0  0
   10.3850    4.6575   23.2386 O   0  0  0  0  0  0  0  0  0  0  0  0
    4.2069    6.8450   20.7994 C   0  0  0  0  0  0  0  0  0  0  0  0
    3.0726   10.1043   19.8522 O   0  0  0  0  0  0  0  0  0  0  0  0
    5.5057    7.1196   21.1155 C   0  0  0  0  0  0  0  0  0  0  0  0
    7.0367   11.0229   21.9948 O   0  0  0  0  0  0  0  0  0  0  0  0
  1  8  4  0
  1 12  4  0
  2  9  1  0
  2 11  4  0
  2 25  4  0
  3 12  4  0
  3 14  1  0
  3 23  4  0
  4 13  4  0
  4 21  4  0
  4 24  1  0
  5  8  4  0
  5 23  4  0
  6 18  2  0
  7 15  4  0
  7 16  1  0
  7 27  4  0
  8 18  1  0
 10 18  1  0
 10 20  1  0
 11 15  4  0
 11 26  1  0
 13 22  4  0
 16 19  1  0
 16 20  2  0
 17 19  4  0
 17 21  4  0
 19 22  4  0
 20 28  1  0
 25 27  4  0
M  END
$$$$

 Created by Python create_sdf_string function

 28 30  0  0  0  0  0  0  0  0999 V2000
   11.4592   11.2893   18.7941 C   0  0  0  0  0  0  0  0  0  0  0  0
    3.4202    7.9009   20.3866 C   0  0  0  0  0  0  0  0  0  0  0  0
   13.5280   10.3522   19.3586 C   0  0  0  0  0  0  0  0  0  0  0  0
    9.6923    5.6468   22.7891 C   0  0  0  0  0  0  0  0  0  0  0  0
   11.7756   10.2554   20.8841 N   0  0  0  0  0  0  0  0  0  0  0  0
    8.9876   11.9370   19.8757 O   0  0  0  0  0  0  0  0  0  0  0  0
    6.0167    8.4478   21.1089 C   0  0  0  0  0  0  0  0  0  0  0  0
   11.0002   10.8890   20.0262 C   0  0  0  0  0  0  0  0  0  0  0  0
    2.1721    7.7393   20.0315 O   0  0  0  0  0  0  0  0  0  0  0  0
    9.1107   10.3880   21.3769 N   0  0  0  0  0  0  0  0  0  0  0  0
    3.9102    9.2008   20.3124 C   0  0  0  0  0  0  0  0  0  0  0  0
   12.7292   10.9960   18.4597 C   0  0  0  0  0  0  0  0  0  0  0  0
    9.3798    6.6793   23.6625 C   0  0  0  0  0  0  0  0  0  0  0  0
   14.7425   10.0739   19.0802 O   0  0  0  0  0  0  0  0  0  0  0  0
    5.1894    9.4673   20.7118 C   0  0  0  0  0  0  0  0  0  0  0  0
    7.3773    8.8224   21.4870 C   0  0  0  0  0  0  0  0  0  0  0  0
    8.4391    6.6439   21.0235 C   0  0  0  0  0  0  0  0  0  0  0  0
    9.6494   11.1353   20.4167 C   0  0  0  0  0  0  0  0  0  0  0  0
    8.1431    7.6829   21.9046 C   0  0  0  0  0  0  0  0  0  0  0  0
    7.7796   10.1314   21.5115 N   0  0  0  0  0  0  0  0  0  0  0  0
    9.2768    5.6183   21.4437 C   0  0  0  0  0  0  0  0  0  0  0  0
    8.6315    7.7322   23.1768 C   0  0  0  0  0  0  0  0  0  0  0  0
   13.0537    9.9821   20.5781 C   0  0  0  0  0  0  0  0  0  0  0  0
   10.3850    4.6575   23.2386 O   0  0  0  0  0  0  0  0  0  0  0  0
    4.2069    6.8450   20.7994 C   0  0  0  0  0  0  0  0  0  0  0  0
    3.0726   10.1043   19.8522 O   0  0  0  0  0  0  0  0  0  0  0  0
    5.5057    7.1196   21.1155 C   0  0  0  0  0  0  0  0  0  0  0  0
    7.0367   11.0229   21.9948 O   0  0  0  0  0  0  0  0  0  0  0  0
  1  8  4  0
  1 12  4  0
  2  9  1  0
  2 11  4  0
  2 25  4  0
  3 12  4  0
  3 14  1  0
  3 23  4  0
  4 13  4  0
  4 21  4  0
  4 24  1  0
  5  8  4  0
  5 23  4  0
  6 18  2  0
  7 15  4  0
  7 16  1  0
  7 27  4  0
  8 18  1  0
 10 18  1  0
 10 20  1  0
 11 15  4  0
 11 26  1  0
 13 22  4  0
 16 19  1  0
 16 20  2  0
 17 19  4  0
 17 21  4  0
 19 22  4  0
 20 28  1  0
 25 27  4  0
M  END
$$$$

 Created by Python create_sdf_string function

 28 30  0  0  0  0  0  0  0  0999 V2000
   11.4592   11.2893   18.7941 C   0  0  0  0  0  0  0  0  0  0  0  0
    3.4202    7.9009   20.3866 C   0  0  0  0  0  0  0  0  0  0  0  0
   13.5280   10.3522   19.3586 C   0  0  0  0  0  0  0  0  0  0  0  0
    9.6923    5.6468   22.7891 C   0  0  0  0  0  0  0  0  0  0  0  0
   11.7756   10.2554   20.8841 N   0  0  0  0  0  0  0  0  0  0  0  0
    8.9876   11.9370   19.8757 O   0  0  0  0  0  0  0  0  0  0  0  0
    6.0167    8.4478   21.1089 C   0  0  0  0  0  0  0  0  0  0  0  0
   11.0002   10.8890   20.0262 C   0  0  0  0  0  0  0  0  0  0  0  0
    2.1721    7.7393   20.0315 O   0  0  0  0  0  0  0  0  0  0  0  0
    9.1107   10.3880   21.3769 N   0  0  0  0  0  0  0  0  0  0  0  0
    3.9102    9.2008   20.3124 C   0  0  0  0  0  0  0  0  0  0  0  0
   12.7292   10.9960   18.4597 C   0  0  0  0  0  0  0  0  0  0  0  0
    9.3798    6.6793   23.6625 C   0  0  0  0  0  0  0  0  0  0  0  0
   14.7425   10.0739   19.0802 O   0  0  0  0  0  0  0  0  0  0  0  0
    5.1894    9.4673   20.7118 C   0  0  0  0  0  0  0  0  0  0  0  0
    7.3773    8.8224   21.4870 C   0  0  0  0  0  0  0  0  0  0  0  0
    8.4391    6.6439   21.0235 C   0  0  0  0  0  0  0  0  0  0  0  0
    9.6494   11.1353   20.4167 C   0  0  0  0  0  0  0  0  0  0  0  0
    8.1431    7.6829   21.9046 C   0  0  0  0  0  0  0  0  0  0  0  0
    7.7796   10.1314   21.5115 N   0  0  0  0  0  0  0  0  0  0  0  0
    9.2768    5.6183   21.4437 C   0  0  0  0  0  0  0  0  0  0  0  0
    8.6315    7.7322   23.1768 C   0  0  0  0  0  0  0  0  0  0  0  0
   13.0537    9.9821   20.5781 C   0  0  0  0  0  0  0  0  0  0  0  0
   10.3850    4.6575   23.2386 O   0  0  0  0  0  0  0  0  0  0  0  0
    4.2069    6.8450   20.7994 C   0  0  0  0  0  0  0  0  0  0  0  0
    3.0726   10.1043   19.8522 O   0  0  0  0  0  0  0  0  0  0  0  0
    5.5057    7.1196   21.1155 C   0  0  0  0  0  0  0  0  0  0  0  0
    7.0367   11.0229   21.9948 O   0  0  0  0  0  0  0  0  0  0  0  0
  1  8  4  0
  1 12  4  0
  2  9  1  0
  2 11  4  0
  2 25  4  0
  3 12  4  0
  3 14  1  0
  3 23  4  0
  4 13  4  0
  4 21  4  0
  4 24  1  0
  5  8  4  0
  5 23  4  0
  6 18  2  0
  7 15  4  0
  7 16  1  0
  7 27  4  0
  8 18  1  0
 10 18  1  0
 10 20  1  0
 11 15  4  0
 11 26  1  0
 13 22  4  0
 16 19  1  0
 16 20  2  0
 17 19  4  0
 17 21  4  0
 19 22  4  0
 20 28  1  0
 25 27  4  0
M  END
$$$$

 Created by Python create_sdf_string function

 28 30  0  0  0  0  0  0  0  0999 V2000
   11.4592   11.2893   18.7941 C   0  0  0  0  0  0  0  0  0  0  0  0
    3.4202    7.9009   20.3866 C   0  0  0  0  0  0  0  0  0  0  0  0
   13.5280   10.3522   19.3586 C   0  0  0  0  0  0  0  0  0  0  0  0
    9.6923    5.6468   22.7891 C   0  0  0  0  0  0  0  0  0  0  0  0
   11.7756   10.2554   20.8841 N   0  0  0  0  0  0  0  0  0  0  0  0
    8.9876   11.9370   19.8757 O   0  0  0  0  0  0  0  0  0  0  0  0
    6.0167    8.4478   21.1089 C   0  0  0  0  0  0  0  0  0  0  0  0
   11.0002   10.8890   20.0262 C   0  0  0  0  0  0  0  0  0  0  0  0
    2.1721    7.7393   20.0315 O   0  0  0  0  0  0  0  0  0  0  0  0
    9.1107   10.3880   21.3769 N   0  0  0  0  0  0  0  0  0  0  0  0
    3.9102    9.2008   20.3124 C   0  0  0  0  0  0  0  0  0  0  0  0
   12.7292   10.9960   18.4597 C   0  0  0  0  0  0  0  0  0  0  0  0
    9.3798    6.6793   23.6625 C   0  0  0  0  0  0  0  0  0  0  0  0
   14.7425   10.0739   19.0802 O   0  0  0  0  0  0  0  0  0  0  0  0
    5.1894    9.4673   20.7118 C   0  0  0  0  0  0  0  0  0  0  0  0
    7.3773    8.8224   21.4870 C   0  0  0  0  0  0  0  0  0  0  0  0
    8.4391    6.6439   21.0235 C   0  0  0  0  0  0  0  0  0  0  0  0
    9.6494   11.1353   20.4167 C   0  0  0  0  0  0  0  0  0  0  0  0
    8.1431    7.6829   21.9046 C   0  0  0  0  0  0  0  0  0  0  0  0
    7.7796   10.1314   21.5115 N   0  0  0  0  0  0  0  0  0  0  0  0
    9.2768    5.6183   21.4437 C   0  0  0  0  0  0  0  0  0  0  0  0
    8.6315    7.7322   23.1768 C   0  0  0  0  0  0  0  0  0  0  0  0
   13.0537    9.9821   20.5781 C   0  0  0  0  0  0  0  0  0  0  0  0
   10.3850    4.6575   23.2386 O   0  0  0  0  0  0  0  0  0  0  0  0
    4.2069    6.8450   20.7994 C   0  0  0  0  0  0  0  0  0  0  0  0
    3.0726   10.1043   19.8522 O   0  0  0  0  0  0  0  0  0  0  0  0
    5.5057    7.1196   21.1155 C   0  0  0  0  0  0  0  0  0  0  0  0
    7.0367   11.0229   21.9948 O   0  0  0  0  0  0  0  0  0  0  0  0
  1  8  4  0
  1 12  4  0
  2  9  1  0
  2 11  4  0
  2 25  4  0
  3 12  4  0
  3 14  1  0
  3 23  4  0
  4 13  4  0
  4 21  4  0
  4 24  1  0
  5  8  4  0
  5 23  4  0
  6 18  2  0
  7 15  4  0
  7 16  1  0
  7 27  4  0
  8 18  1  0
 10 18  1  0
 10 20  1  0
 11 15  4  0
 11 26  1  0
 13 22  4  0
 16 19  1  0
 16 20  2  0
 17 19  4  0
 17 21  4  0
 19 22  4  0
 20 28  1  0
 25 27  4  0
M  END
$$$$

 Created by Python create_sdf_string function

 28 30  0  0  0  0  0  0  0  0999 V2000
   11.4592   11.2893   18.7941 C   0  0  0  0  0  0  0  0  0  0  0  0
    3.4202    7.9009   20.3866 C   0  0  0  0  0  0  0  0  0  0  0  0
   13.5280   10.3522   19.3586 C   0  0  0  0  0  0  0  0  0  0  0  0
    9.6923    5.6468   22.7891 C   0  0  0  0  0  0  0  0  0  0  0  0
   11.7756   10.2554   20.8841 N   0  0  0  0  0  0  0  0  0  0  0  0
    8.9876   11.9370   19.8757 O   0  0  0  0  0  0  0  0  0  0  0  0
    6.0167    8.4478   21.1089 C   0  0  0  0  0  0  0  0  0  0  0  0
   11.0002   10.8890   20.0262 C   0  0  0  0  0  0  0  0  0  0  0  0
    2.1721    7.7393   20.0315 O   0  0  0  0  0  0  0  0  0  0  0  0
    9.1107   10.3880   21.3769 N   0  0  0  0  0  0  0  0  0  0  0  0
    3.9102    9.2008   20.3124 C   0  0  0  0  0  0  0  0  0  0  0  0
   12.7292   10.9960   18.4597 C   0  0  0  0  0  0  0  0  0  0  0  0
    9.3798    6.6793   23.6625 C   0  0  0  0  0  0  0  0  0  0  0  0
   14.7425   10.0739   19.0802 O   0  0  0  0  0  0  0  0  0  0  0  0
    5.1894    9.4673   20.7118 C   0  0  0  0  0  0  0  0  0  0  0  0
    7.3773    8.8224   21.4870 C   0  0  0  0  0  0  0  0  0  0  0  0
    8.4391    6.6439   21.0235 C   0  0  0  0  0  0  0  0  0  0  0  0
    9.6494   11.1353   20.4167 C   0  0  0  0  0  0  0  0  0  0  0  0
    8.1431    7.6829   21.9046 C   0  0  0  0  0  0  0  0  0  0  0  0
    7.7796   10.1314   21.5115 N   0  0  0  0  0  0  0  0  0  0  0  0
    9.2768    5.6183   21.4437 C   0  0  0  0  0  0  0  0  0  0  0  0
    8.6315    7.7322   23.1768 C   0  0  0  0  0  0  0  0  0  0  0  0
   13.0537    9.9821   20.5781 C   0  0  0  0  0  0  0  0  0  0  0  0
   10.3850    4.6575   23.2386 O   0  0  0  0  0  0  0  0  0  0  0  0
    4.2069    6.8450   20.7994 C   0  0  0  0  0  0  0  0  0  0  0  0
    3.0726   10.1043   19.8522 O   0  0  0  0  0  0  0  0  0  0  0  0
    5.5057    7.1196   21.1155 C   0  0  0  0  0  0  0  0  0  0  0  0
    7.0367   11.0229   21.9948 O   0  0  0  0  0  0  0  0  0  0  0  0
  1  8  4  0
  1 12  4  0
  2  9  1  0
  2 11  4  0
  2 25  4  0
  3 12  4  0
  3 14  1  0
  3 23  4  0
  4 13  4  0
  4 21  4  0
  4 24  1  0
  5  8  4  0
  5 23  4  0
  6 18  2  0
  7 15  4  0
  7 16  1  0
  7 27  4  0
  8 18  1  0
 10 18  1  0
 10 20  1  0
 11 15  4  0
 11 26  1  0
 13 22  4  0
 16 19  1  0
 16 20  2  0
 17 19  4  0
 17 21  4  0
 19 22  4  0
 20 28  1  0
 25 27  4  0
M  END
$$$$

 Created by Python create_sdf_string function

 28 30  0  0  0  0  0  0  0  0999 V2000
   11.4592   11.2893   18.7941 C   0  0  0  0  0  0  0  0  0  0  0  0
    3.4202    7.9009   20.3866 C   0  0  0  0  0  0  0  0  0  0  0  0
   13.5280   10.3522   19.3586 C   0  0  0  0  0  0  0  0  0  0  0  0
    9.6923    5.6468   22.7891 C   0  0  0  0  0  0  0  0  0  0  0  0
   11.7756   10.2554   20.8841 N   0  0  0  0  0  0  0  0  0  0  0  0
    8.9876   11.9370   19.8757 O   0  0  0  0  0  0  0  0  0  0  0  0
    6.0167    8.4478   21.1089 C   0  0  0  0  0  0  0  0  0  0  0  0
   11.0002   10.8890   20.0262 C   0  0  0  0  0  0  0  0  0  0  0  0
    2.1721    7.7393   20.0315 O   0  0  0  0  0  0  0  0  0  0  0  0
    9.1107   10.3880   21.3769 N   0  0  0  0  0  0  0  0  0  0  0  0
    3.9102    9.2008   20.3124 C   0  0  0  0  0  0  0  0  0  0  0  0
   12.7292   10.9960   18.4597 C   0  0  0  0  0  0  0  0  0  0  0  0
    9.3798    6.6793   23.6625 C   0  0  0  0  0  0  0  0  0  0  0  0
   14.7425   10.0739   19.0802 O   0  0  0  0  0  0  0  0  0  0  0  0
    5.1894    9.4673   20.7118 C   0  0  0  0  0  0  0  0  0  0  0  0
    7.3773    8.8224   21.4870 C   0  0  0  0  0  0  0  0  0  0  0  0
    8.4391    6.6439   21.0235 C   0  0  0  0  0  0  0  0  0  0  0  0
    9.6494   11.1353   20.4167 C   0  0  0  0  0  0  0  0  0  0  0  0
    8.1431    7.6829   21.9046 C   0  0  0  0  0  0  0  0  0  0  0  0
    7.7796   10.1314   21.5115 N   0  0  0  0  0  0  0  0  0  0  0  0
    9.2768    5.6183   21.4437 C   0  0  0  0  0  0  0  0  0  0  0  0
    8.6315    7.7322   23.1768 C   0  0  0  0  0  0  0  0  0  0  0  0
   13.0537    9.9821   20.5781 C   0  0  0  0  0  0  0  0  0  0  0  0
   10.3850    4.6575   23.2386 O   0  0  0  0  0  0  0  0  0  0  0  0
    4.2069    6.8450   20.7994 C   0  0  0  0  0  0  0  0  0  0  0  0
    3.0726   10.1043   19.8522 O   0  0  0  0  0  0  0  0  0  0  0  0
    5.5057    7.1196   21.1155 C   0  0  0  0  0  0  0  0  0  0  0  0
    7.0367   11.0229   21.9948 O   0  0  0  0  0  0  0  0  0  0  0  0
  1  8  4  0
  1 12  4  0
  2  9  1  0
  2 11  4  0
  2 25  4  0
  3 12  4  0
  3 14  1  0
  3 23  4  0
  4 13  4  0
  4 21  4  0
  4 24  1  0
  5  8  4  0
  5 23  4  0
  6 18  2  0
  7 15  4  0
  7 16  1  0
  7 27  4  0
  8 18  1  0
 10 18  1  0
 10 20  1  0
 11 15  4  0
 11 26  1  0
 13 22  4  0
 16 19  1  0
 16 20  2  0
 17 19  4  0
 17 21  4  0
 19 22  4  0
 20 28  1  0
 25 27  4  0
M  END
$$$$

 Created by Python create_sdf_string function

 28 30  0  0  0  0  0  0  0  0999 V2000
   11.4592   11.2893   18.7941 C   0  0  0  0  0  0  0  0  0  0  0  0
    3.4202    7.9009   20.3866 C   0  0  0  0  0  0  0  0  0  0  0  0
   13.5280   10.3522   19.3586 C   0  0  0  0  0  0  0  0  0  0  0  0
    9.6923    5.6468   22.7891 C   0  0  0  0  0  0  0  0  0  0  0  0
   11.7756   10.2554   20.8841 N   0  0  0  0  0  0  0  0  0  0  0  0
    8.9876   11.9370   19.8757 O   0  0  0  0  0  0  0  0  0  0  0  0
    6.0167    8.4478   21.1089 C   0  0  0  0  0  0  0  0  0  0  0  0
   11.0002   10.8890   20.0262 C   0  0  0  0  0  0  0  0  0  0  0  0
    2.1721    7.7393   20.0315 O   0  0  0  0  0  0  0  0  0  0  0  0
    9.1107   10.3880   21.3769 N   0  0  0  0  0  0  0  0  0  0  0  0
    3.9102    9.2008   20.3124 C   0  0  0  0  0  0  0  0  0  0  0  0
   12.7292   10.9960   18.4597 C   0  0  0  0  0  0  0  0  0  0  0  0
    9.3798    6.6793   23.6625 C   0  0  0  0  0  0  0  0  0  0  0  0
   14.7425   10.0739   19.0802 O   0  0  0  0  0  0  0  0  0  0  0  0
    5.1894    9.4673   20.7118 C   0  0  0  0  0  0  0  0  0  0  0  0
    7.3773    8.8224   21.4870 C   0  0  0  0  0  0  0  0  0  0  0  0
    8.4391    6.6439   21.0235 C   0  0  0  0  0  0  0  0  0  0  0  0
    9.6494   11.1353   20.4167 C   0  0  0  0  0  0  0  0  0  0  0  0
    8.1431    7.6829   21.9046 C   0  0  0  0  0  0  0  0  0  0  0  0
    7.7796   10.1314   21.5115 N   0  0  0  0  0  0  0  0  0  0  0  0
    9.2768    5.6183   21.4437 C   0  0  0  0  0  0  0  0  0  0  0  0
    8.6315    7.7322   23.1768 C   0  0  0  0  0  0  0  0  0  0  0  0
   13.0537    9.9821   20.5781 C   0  0  0  0  0  0  0  0  0  0  0  0
   10.3850    4.6575   23.2386 O   0  0  0  0  0  0  0  0  0  0  0  0
    4.2069    6.8450   20.7994 C   0  0  0  0  0  0  0  0  0  0  0  0
    3.0726   10.1043   19.8522 O   0  0  0  0  0  0  0  0  0  0  0  0
    5.5057    7.1196   21.1155 C   0  0  0  0  0  0  0  0  0  0  0  0
    7.0367   11.0229   21.9948 O   0  0  0  0  0  0  0  0  0  0  0  0
  1  8  4  0
  1 12  4  0
  2  9  1  0
  2 11  4  0
  2 25  4  0
  3 12  4  0
  3 14  1  0
  3 23  4  0
  4 13  4  0
  4 21  4  0
  4 24  1  0
  5  8  4  0
  5 23  4  0
  6 18  2  0
  7 15  4  0
  7 16  1  0
  7 27  4  0
  8 18  1  0
 10 18  1  0
 10 20  1  0
 11 15  4  0
 11 26  1  0
 13 22  4  0
 16 19  1  0
 16 20  2  0
 17 19  4  0
 17 21  4  0
 19 22  4  0
 20 28  1  0
 25 27  4  0
M  END
$$$$

 Created by Python create_sdf_string function

 28 30  0  0  0  0  0  0  0  0999 V2000
   11.4592   11.2893   18.7941 C   0  0  0  0  0  0  0  0  0  0  0  0
    3.4202    7.9009   20.3866 C   0  0  0  0  0  0  0  0  0  0  0  0
   13.5280   10.3522   19.3586 C   0  0  0  0  0  0  0  0  0  0  0  0
    9.6923    5.6468   22.7891 C   0  0  0  0  0  0  0  0  0  0  0  0
   11.7756   10.2554   20.8841 N   0  0  0  0  0  0  0  0  0  0  0  0
    8.9876   11.9370   19.8757 O   0  0  0  0  0  0  0  0  0  0  0  0
    6.0167    8.4478   21.1089 C   0  0  0  0  0  0  0  0  0  0  0  0
   11.0002   10.8890   20.0262 C   0  0  0  0  0  0  0  0  0  0  0  0
    2.1721    7.7393   20.0315 O   0  0  0  0  0  0  0  0  0  0  0  0
    9.1107   10.3880   21.3769 N   0  0  0  0  0  0  0  0  0  0  0  0
    3.9102    9.2008   20.3124 C   0  0  0  0  0  0  0  0  0  0  0  0
   12.7292   10.9960   18.4597 C   0  0  0  0  0  0  0  0  0  0  0  0
    9.3798    6.6793   23.6625 C   0  0  0  0  0  0  0  0  0  0  0  0
   14.7425   10.0739   19.0802 O   0  0  0  0  0  0  0  0  0  0  0  0
    5.1894    9.4673   20.7118 C   0  0  0  0  0  0  0  0  0  0  0  0
    7.3773    8.8224   21.4870 C   0  0  0  0  0  0  0  0  0  0  0  0
    8.4391    6.6439   21.0235 C   0  0  0  0  0  0  0  0  0  0  0  0
    9.6494   11.1353   20.4167 C   0  0  0  0  0  0  0  0  0  0  0  0
    8.1431    7.6829   21.9046 C   0  0  0  0  0  0  0  0  0  0  0  0
    7.7796   10.1314   21.5115 N   0  0  0  0  0  0  0  0  0  0  0  0
    9.2768    5.6183   21.4437 C   0  0  0  0  0  0  0  0  0  0  0  0
    8.6315    7.7322   23.1768 C   0  0  0  0  0  0  0  0  0  0  0  0
   13.0537    9.9821   20.5781 C   0  0  0  0  0  0  0  0  0  0  0  0
   10.3850    4.6575   23.2386 O   0  0  0  0  0  0  0  0  0  0  0  0
    4.2069    6.8450   20.7994 C   0  0  0  0  0  0  0  0  0  0  0  0
    3.0726   10.1043   19.8522 O   0  0  0  0  0  0  0  0  0  0  0  0
    5.5057    7.1196   21.1155 C   0  0  0  0  0  0  0  0  0  0  0  0
    7.0367   11.0229   21.9948 O   0  0  0  0  0  0  0  0  0  0  0  0
  1  8  4  0
  1 12  4  0
  2  9  1  0
  2 11  4  0
  2 25  4  0
  3 12  4  0
  3 14  1  0
  3 23  4  0
  4 13  4  0
  4 21  4  0
  4 24  1  0
  5  8  4  0
  5 23  4  0
  6 18  2  0
  7 15  4  0
  7 16  1  0
  7 27  4  0
  8 18  1  0
 10 18  1  0
 10 20  1  0
 11 15  4  0
 11 26  1  0
 13 22  4  0
 16 19  1  0
 16 20  2  0
 17 19  4  0
 17 21  4  0
 19 22  4  0
 20 28  1  0
 25 27  4  0
M  END
$$$$

 Created by Python create_sdf_string function

 28 30  0  0  0  0  0  0  0  0999 V2000
   11.4592   11.2893   18.7941 C   0  0  0  0  0  0  0  0  0  0  0  0
    3.4202    7.9009   20.3866 C   0  0  0  0  0  0  0  0  0  0  0  0
   13.5280   10.3522   19.3586 C   0  0  0  0  0  0  0  0  0  0  0  0
    9.6923    5.6468   22.7891 C   0  0  0  0  0  0  0  0  0  0  0  0
   11.7756   10.2554   20.8841 N   0  0  0  0  0  0  0  0  0  0  0  0
    8.9876   11.9370   19.8757 O   0  0  0  0  0  0  0  0  0  0  0  0
    6.0167    8.4478   21.1089 C   0  0  0  0  0  0  0  0  0  0  0  0
   11.0002   10.8890   20.0262 C   0  0  0  0  0  0  0  0  0  0  0  0
    2.1721    7.7393   20.0315 O   0  0  0  0  0  0  0  0  0  0  0  0
    9.1107   10.3880   21.3769 N   0  0  0  0  0  0  0  0  0  0  0  0
    3.9102    9.2008   20.3124 C   0  0  0  0  0  0  0  0  0  0  0  0
   12.7292   10.9960   18.4597 C   0  0  0  0  0  0  0  0  0  0  0  0
    9.3798    6.6793   23.6625 C   0  0  0  0  0  0  0  0  0  0  0  0
   14.7425   10.0739   19.0802 O   0  0  0  0  0  0  0  0  0  0  0  0
    5.1894    9.4673   20.7118 C   0  0  0  0  0  0  0  0  0  0  0  0
    7.3773    8.8224   21.4870 C   0  0  0  0  0  0  0  0  0  0  0  0
    8.4391    6.6439   21.0235 C   0  0  0  0  0  0  0  0  0  0  0  0
    9.6494   11.1353   20.4167 C   0  0  0  0  0  0  0  0  0  0  0  0
    8.1431    7.6829   21.9046 C   0  0  0  0  0  0  0  0  0  0  0  0
    7.7796   10.1314   21.5115 N   0  0  0  0  0  0  0  0  0  0  0  0
    9.2768    5.6183   21.4437 C   0  0  0  0  0  0  0  0  0  0  0  0
    8.6315    7.7322   23.1768 C   0  0  0  0  0  0  0  0  0  0  0  0
   13.0537    9.9821   20.5781 C   0  0  0  0  0  0  0  0  0  0  0  0
   10.3850    4.6575   23.2386 O   0  0  0  0  0  0  0  0  0  0  0  0
    4.2069    6.8450   20.7994 C   0  0  0  0  0  0  0  0  0  0  0  0
    3.0726   10.1043   19.8522 O   0  0  0  0  0  0  0  0  0  0  0  0
    5.5057    7.1196   21.1155 C   0  0  0  0  0  0  0  0  0  0  0  0
    7.0367   11.0229   21.9948 O   0  0  0  0  0  0  0  0  0  0  0  0
  1  8  4  0
  1 12  4  0
  2  9  1  0
  2 11  4  0
  2 25  4  0
  3 12  4  0
  3 14  1  0
  3 23  4  0
  4 13  4  0
  4 21  4  0
  4 24  1  0
  5  8  4  0
  5 23  4  0
  6 18  2  0
  7 15  4  0
  7 16  1  0
  7 27  4  0
  8 18  1  0
 10 18  1  0
 10 20  1  0
 11 15  4  0
 11 26  1  0
 13 22  4  0
 16 19  1  0
 16 20  2  0
 17 19  4  0
 17 21  4  0
 19 22  4  0
 20 28  1  0
 25 27  4  0
M  END
$$$$

 Created by Python create_sdf_string function

 28 30  0  0  0  0  0  0  0  0999 V2000
   11.4592   11.2893   18.7941 C   0  0  0  0  0  0  0  0  0  0  0  0
    3.4202    7.9009   20.3866 C   0  0  0  0  0  0  0  0  0  0  0  0
   13.5280   10.3522   19.3586 C   0  0  0  0  0  0  0  0  0  0  0  0
    9.6923    5.6468   22.7891 C   0  0  0  0  0  0  0  0  0  0  0  0
   11.7756   10.2554   20.8841 N   0  0  0  0  0  0  0  0  0  0  0  0
    8.9876   11.9370   19.8757 O   0  0  0  0  0  0  0  0  0  0  0  0
    6.0167    8.4478   21.1089 C   0  0  0  0  0  0  0  0  0  0  0  0
   11.0002   10.8890   20.0262 C   0  0  0  0  0  0  0  0  0  0  0  0
    2.1721    7.7393   20.0315 O   0  0  0  0  0  0  0  0  0  0  0  0
    9.1107   10.3880   21.3769 N   0  0  0  0  0  0  0  0  0  0  0  0
    3.9102    9.2008   20.3124 C   0  0  0  0  0  0  0  0  0  0  0  0
   12.7292   10.9960   18.4597 C   0  0  0  0  0  0  0  0  0  0  0  0
    9.3798    6.6793   23.6625 C   0  0  0  0  0  0  0  0  0  0  0  0
   14.7425   10.0739   19.0802 O   0  0  0  0  0  0  0  0  0  0  0  0
    5.1894    9.4673   20.7118 C   0  0  0  0  0  0  0  0  0  0  0  0
    7.3773    8.8224   21.4870 C   0  0  0  0  0  0  0  0  0  0  0  0
    8.4391    6.6439   21.0235 C   0  0  0  0  0  0  0  0  0  0  0  0
    9.6494   11.1353   20.4167 C   0  0  0  0  0  0  0  0  0  0  0  0
    8.1431    7.6829   21.9046 C   0  0  0  0  0  0  0  0  0  0  0  0
    7.7796   10.1314   21.5115 N   0  0  0  0  0  0  0  0  0  0  0  0
    9.2768    5.6183   21.4437 C   0  0  0  0  0  0  0  0  0  0  0  0
    8.6315    7.7322   23.1768 C   0  0  0  0  0  0  0  0  0  0  0  0
   13.0537    9.9821   20.5781 C   0  0  0  0  0  0  0  0  0  0  0  0
   10.3850    4.6575   23.2386 O   0  0  0  0  0  0  0  0  0  0  0  0
    4.2069    6.8450   20.7994 C   0  0  0  0  0  0  0  0  0  0  0  0
    3.0726   10.1043   19.8522 O   0  0  0  0  0  0  0  0  0  0  0  0
    5.5057    7.1196   21.1155 C   0  0  0  0  0  0  0  0  0  0  0  0
    7.0367   11.0229   21.9948 O   0  0  0  0  0  0  0  0  0  0  0  0
  1  8  4  0
  1 12  4  0
  2  9  1  0
  2 11  4  0
  2 25  4  0
  3 12  4  0
  3 14  1  0
  3 23  4  0
  4 13  4  0
  4 21  4  0
  4 24  1  0
  5  8  4  0
  5 23  4  0
  6 18  2  0
  7 15  4  0
  7 16  1  0
  7 27  4  0
  8 18  1  0
 10 18  1  0
 10 20  1  0
 11 15  4  0
 11 26  1  0
 13 22  4  0
 16 19  1  0
 16 20  2  0
 17 19  4  0
 17 21  4  0
 19 22  4  0
 20 28  1  0
 25 27  4  0
M  END
$$$$

 Created by Python create_sdf_string function

 28 30  0  0  0  0  0  0  0  0999 V2000
   11.4592   11.2893   18.7941 C   0  0  0  0  0  0  0  0  0  0  0  0
    3.4202    7.9009   20.3866 C   0  0  0  0  0  0  0  0  0  0  0  0
   13.5280   10.3522   19.3586 C   0  0  0  0  0  0  0  0  0  0  0  0
    9.6923    5.6468   22.7891 C   0  0  0  0  0  0  0  0  0  0  0  0
   11.7756   10.2554   20.8841 N   0  0  0  0  0  0  0  0  0  0  0  0
    8.9876   11.9370   19.8757 O   0  0  0  0  0  0  0  0  0  0  0  0
    6.0167    8.4478   21.1089 C   0  0  0  0  0  0  0  0  0  0  0  0
   11.0002   10.8890   20.0262 C   0  0  0  0  0  0  0  0  0  0  0  0
    2.1721    7.7393   20.0315 O   0  0  0  0  0  0  0  0  0  0  0  0
    9.1107   10.3880   21.3769 N   0  0  0  0  0  0  0  0  0  0  0  0
    3.9102    9.2008   20.3124 C   0  0  0  0  0  0  0  0  0  0  0  0
   12.7292   10.9960   18.4597 C   0  0  0  0  0  0  0  0  0  0  0  0
    9.3798    6.6793   23.6625 C   0  0  0  0  0  0  0  0  0  0  0  0
   14.7425   10.0739   19.0802 O   0  0  0  0  0  0  0  0  0  0  0  0
    5.1894    9.4673   20.7118 C   0  0  0  0  0  0  0  0  0  0  0  0
    7.3773    8.8224   21.4870 C   0  0  0  0  0  0  0  0  0  0  0  0
    8.4391    6.6439   21.0235 C   0  0  0  0  0  0  0  0  0  0  0  0
    9.6494   11.1353   20.4167 C   0  0  0  0  0  0  0  0  0  0  0  0
    8.1431    7.6829   21.9046 C   0  0  0  0  0  0  0  0  0  0  0  0
    7.7796   10.1314   21.5115 N   0  0  0  0  0  0  0  0  0  0  0  0
    9.2768    5.6183   21.4437 C   0  0  0  0  0  0  0  0  0  0  0  0
    8.6315    7.7322   23.1768 C   0  0  0  0  0  0  0  0  0  0  0  0
   13.0537    9.9821   20.5781 C   0  0  0  0  0  0  0  0  0  0  0  0
   10.3850    4.6575   23.2386 O   0  0  0  0  0  0  0  0  0  0  0  0
    4.2069    6.8450   20.7994 C   0  0  0  0  0  0  0  0  0  0  0  0
    3.0726   10.1043   19.8522 O   0  0  0  0  0  0  0  0  0  0  0  0
    5.5057    7.1196   21.1155 C   0  0  0  0  0  0  0  0  0  0  0  0
    7.0367   11.0229   21.9948 O   0  0  0  0  0  0  0  0  0  0  0  0
  1  8  4  0
  1 12  4  0
  2  9  1  0
  2 11  4  0
  2 25  4  0
  3 12  4  0
  3 14  1  0
  3 23  4  0
  4 13  4  0
  4 21  4  0
  4 24  1  0
  5  8  4  0
  5 23  4  0
  6 18  2  0
  7 15  4  0
  7 16  1  0
  7 27  4  0
  8 18  1  0
 10 18  1  0
 10 20  1  0
 11 15  4  0
 11 26  1  0
 13 22  4  0
 16 19  1  0
 16 20  2  0
 17 19  4  0
 17 21  4  0
 19 22  4  0
 20 28  1  0
 25 27  4  0
M  END
$$$$

 Created by Python create_sdf_string function

 28 30  0  0  0  0  0  0  0  0999 V2000
   11.4592   11.2893   18.7941 C   0  0  0  0  0  0  0  0  0  0  0  0
    3.4202    7.9009   20.3866 C   0  0  0  0  0  0  0  0  0  0  0  0
   13.5280   10.3522   19.3586 C   0  0  0  0  0  0  0  0  0  0  0  0
    9.6923    5.6468   22.7891 C   0  0  0  0  0  0  0  0  0  0  0  0
   11.7756   10.2554   20.8841 N   0  0  0  0  0  0  0  0  0  0  0  0
    8.9876   11.9370   19.8757 O   0  0  0  0  0  0  0  0  0  0  0  0
    6.0167    8.4478   21.1089 C   0  0  0  0  0  0  0  0  0  0  0  0
   11.0002   10.8890   20.0262 C   0  0  0  0  0  0  0  0  0  0  0  0
    2.1721    7.7393   20.0315 O   0  0  0  0  0  0  0  0  0  0  0  0
    9.1107   10.3880   21.3769 N   0  0  0  0  0  0  0  0  0  0  0  0
    3.9102    9.2008   20.3124 C   0  0  0  0  0  0  0  0  0  0  0  0
   12.7292   10.9960   18.4597 C   0  0  0  0  0  0  0  0  0  0  0  0
    9.3798    6.6793   23.6625 C   0  0  0  0  0  0  0  0  0  0  0  0
   14.7425   10.0739   19.0802 O   0  0  0  0  0  0  0  0  0  0  0  0
    5.1894    9.4673   20.7118 C   0  0  0  0  0  0  0  0  0  0  0  0
    7.3773    8.8224   21.4870 C   0  0  0  0  0  0  0  0  0  0  0  0
    8.4391    6.6439   21.0235 C   0  0  0  0  0  0  0  0  0  0  0  0
    9.6494   11.1353   20.4167 C   0  0  0  0  0  0  0  0  0  0  0  0
    8.1431    7.6829   21.9046 C   0  0  0  0  0  0  0  0  0  0  0  0
    7.7796   10.1314   21.5115 N   0  0  0  0  0  0  0  0  0  0  0  0
    9.2768    5.6183   21.4437 C   0  0  0  0  0  0  0  0  0  0  0  0
    8.6315    7.7322   23.1768 C   0  0  0  0  0  0  0  0  0  0  0  0
   13.0537    9.9821   20.5781 C   0  0  0  0  0  0  0  0  0  0  0  0
   10.3850    4.6575   23.2386 O   0  0  0  0  0  0  0  0  0  0  0  0
    4.2069    6.8450   20.7994 C   0  0  0  0  0  0  0  0  0  0  0  0
    3.0726   10.1043   19.8522 O   0  0  0  0  0  0  0  0  0  0  0  0
    5.5057    7.1196   21.1155 C   0  0  0  0  0  0  0  0  0  0  0  0
    7.0367   11.0229   21.9948 O   0  0  0  0  0  0  0  0  0  0  0  0
  1  8  4  0
  1 12  4  0
  2  9  1  0
  2 11  4  0
  2 25  4  0
  3 12  4  0
  3 14  1  0
  3 23  4  0
  4 13  4  0
  4 21  4  0
  4 24  1  0
  5  8  4  0
  5 23  4  0
  6 18  2  0
  7 15  4  0
  7 16  1  0
  7 27  4  0
  8 18  1  0
 10 18  1  0
 10 20  1  0
 11 15  4  0
 11 26  1  0
 13 22  4  0
 16 19  1  0
 16 20  2  0
 17 19  4  0
 17 21  4  0
 19 22  4  0
 20 28  1  0
 25 27  4  0
M  END
$$$$

 Created by Python create_sdf_string function

 28 30  0  0  0  0  0  0  0  0999 V2000
   11.4592   11.2893   18.7941 C   0  0  0  0  0  0  0  0  0  0  0  0
    3.4202    7.9009   20.3866 C   0  0  0  0  0  0  0  0  0  0  0  0
   13.5280   10.3522   19.3586 C   0  0  0  0  0  0  0  0  0  0  0  0
    9.6923    5.6468   22.7891 C   0  0  0  0  0  0  0  0  0  0  0  0
   11.7756   10.2554   20.8841 N   0  0  0  0  0  0  0  0  0  0  0  0
    8.9876   11.9370   19.8757 O   0  0  0  0  0  0  0  0  0  0  0  0
    6.0167    8.4478   21.1089 C   0  0  0  0  0  0  0  0  0  0  0  0
   11.0002   10.8890   20.0262 C   0  0  0  0  0  0  0  0  0  0  0  0
    2.1721    7.7393   20.0315 O   0  0  0  0  0  0  0  0  0  0  0  0
    9.1107   10.3880   21.3769 N   0  0  0  0  0  0  0  0  0  0  0  0
    3.9102    9.2008   20.3124 C   0  0  0  0  0  0  0  0  0  0  0  0
   12.7292   10.9960   18.4597 C   0  0  0  0  0  0  0  0  0  0  0  0
    9.3798    6.6793   23.6625 C   0  0  0  0  0  0  0  0  0  0  0  0
   14.7425   10.0739   19.0802 O   0  0  0  0  0  0  0  0  0  0  0  0
    5.1894    9.4673   20.7118 C   0  0  0  0  0  0  0  0  0  0  0  0
    7.3773    8.8224   21.4870 C   0  0  0  0  0  0  0  0  0  0  0  0
    8.4391    6.6439   21.0235 C   0  0  0  0  0  0  0  0  0  0  0  0
    9.6494   11.1353   20.4167 C   0  0  0  0  0  0  0  0  0  0  0  0
    8.1431    7.6829   21.9046 C   0  0  0  0  0  0  0  0  0  0  0  0
    7.7796   10.1314   21.5115 N   0  0  0  0  0  0  0  0  0  0  0  0
    9.2768    5.6183   21.4437 C   0  0  0  0  0  0  0  0  0  0  0  0
    8.6315    7.7322   23.1768 C   0  0  0  0  0  0  0  0  0  0  0  0
   13.0537    9.9821   20.5781 C   0  0  0  0  0  0  0  0  0  0  0  0
   10.3850    4.6575   23.2386 O   0  0  0  0  0  0  0  0  0  0  0  0
    4.2069    6.8450   20.7994 C   0  0  0  0  0  0  0  0  0  0  0  0
    3.0726   10.1043   19.8522 O   0  0  0  0  0  0  0  0  0  0  0  0
    5.5057    7.1196   21.1155 C   0  0  0  0  0  0  0  0  0  0  0  0
    7.0367   11.0229   21.9948 O   0  0  0  0  0  0  0  0  0  0  0  0
  1  8  4  0
  1 12  4  0
  2  9  1  0
  2 11  4  0
  2 25  4  0
  3 12  4  0
  3 14  1  0
  3 23  4  0
  4 13  4  0
  4 21  4  0
  4 24  1  0
  5  8  4  0
  5 23  4  0
  6 18  2  0
  7 15  4  0
  7 16  1  0
  7 27  4  0
  8 18  1  0
 10 18  1  0
 10 20  1  0
 11 15  4  0
 11 26  1  0
 13 22  4  0
 16 19  1  0
 16 20  2  0
 17 19  4  0
 17 21  4  0
 19 22  4  0
 20 28  1  0
 25 27  4  0
M  END
$$$$

 Created by Python create_sdf_string function

 28 30  0  0  0  0  0  0  0  0999 V2000
   11.4592   11.2893   18.7941 C   0  0  0  0  0  0  0  0  0  0  0  0
    3.4202    7.9009   20.3866 C   0  0  0  0  0  0  0  0  0  0  0  0
   13.5280   10.3522   19.3586 C   0  0  0  0  0  0  0  0  0  0  0  0
    9.6923    5.6468   22.7891 C   0  0  0  0  0  0  0  0  0  0  0  0
   11.7756   10.2554   20.8841 N   0  0  0  0  0  0  0  0  0  0  0  0
    8.9876   11.9370   19.8757 O   0  0  0  0  0  0  0  0  0  0  0  0
    6.0167    8.4478   21.1089 C   0  0  0  0  0  0  0  0  0  0  0  0
   11.0002   10.8890   20.0262 C   0  0  0  0  0  0  0  0  0  0  0  0
    2.1721    7.7393   20.0315 O   0  0  0  0  0  0  0  0  0  0  0  0
    9.1107   10.3880   21.3769 N   0  0  0  0  0  0  0  0  0  0  0  0
    3.9102    9.2008   20.3124 C   0  0  0  0  0  0  0  0  0  0  0  0
   12.7292   10.9960   18.4597 C   0  0  0  0  0  0  0  0  0  0  0  0
    9.3798    6.6793   23.6625 C   0  0  0  0  0  0  0  0  0  0  0  0
   14.7425   10.0739   19.0802 O   0  0  0  0  0  0  0  0  0  0  0  0
    5.1894    9.4673   20.7118 C   0  0  0  0  0  0  0  0  0  0  0  0
    7.3773    8.8224   21.4870 C   0  0  0  0  0  0  0  0  0  0  0  0
    8.4391    6.6439   21.0235 C   0  0  0  0  0  0  0  0  0  0  0  0
    9.6494   11.1353   20.4167 C   0  0  0  0  0  0  0  0  0  0  0  0
    8.1431    7.6829   21.9046 C   0  0  0  0  0  0  0  0  0  0  0  0
    7.7796   10.1314   21.5115 N   0  0  0  0  0  0  0  0  0  0  0  0
    9.2768    5.6183   21.4437 C   0  0  0  0  0  0  0  0  0  0  0  0
    8.6315    7.7322   23.1768 C   0  0  0  0  0  0  0  0  0  0  0  0
   13.0537    9.9821   20.5781 C   0  0  0  0  0  0  0  0  0  0  0  0
   10.3850    4.6575   23.2386 O   0  0  0  0  0  0  0  0  0  0  0  0
    4.2069    6.8450   20.7994 C   0  0  0  0  0  0  0  0  0  0  0  0
    3.0726   10.1043   19.8522 O   0  0  0  0  0  0  0  0  0  0  0  0
    5.5057    7.1196   21.1155 C   0  0  0  0  0  0  0  0  0  0  0  0
    7.0367   11.0229   21.9948 O   0  0  0  0  0  0  0  0  0  0  0  0
  1  8  4  0
  1 12  4  0
  2  9  1  0
  2 11  4  0
  2 25  4  0
  3 12  4  0
  3 14  1  0
  3 23  4  0
  4 13  4  0
  4 21  4  0
  4 24  1  0
  5  8  4  0
  5 23  4  0
  6 18  2  0
  7 15  4  0
  7 16  1  0
  7 27  4  0
  8 18  1  0
 10 18  1  0
 10 20  1  0
 11 15  4  0
 11 26  1  0
 13 22  4  0
 16 19  1  0
 16 20  2  0
 17 19  4  0
 17 21  4  0
 19 22  4  0
 20 28  1  0
 25 27  4  0
M  END
$$$$

 Created by Python create_sdf_string function

 28 30  0  0  0  0  0  0  0  0999 V2000
   11.4592   11.2893   18.7941 C   0  0  0  0  0  0  0  0  0  0  0  0
    3.4202    7.9009   20.3866 C   0  0  0  0  0  0  0  0  0  0  0  0
   13.5280   10.3522   19.3586 C   0  0  0  0  0  0  0  0  0  0  0  0
    9.6923    5.6468   22.7891 C   0  0  0  0  0  0  0  0  0  0  0  0
   11.7756   10.2554   20.8841 N   0  0  0  0  0  0  0  0  0  0  0  0
    8.9876   11.9370   19.8757 O   0  0  0  0  0  0  0  0  0  0  0  0
    6.0167    8.4478   21.1089 C   0  0  0  0  0  0  0  0  0  0  0  0
   11.0002   10.8890   20.0262 C   0  0  0  0  0  0  0  0  0  0  0  0
    2.1721    7.7393   20.0315 O   0  0  0  0  0  0  0  0  0  0  0  0
    9.1107   10.3880   21.3769 N   0  0  0  0  0  0  0  0  0  0  0  0
    3.9102    9.2008   20.3124 C   0  0  0  0  0  0  0  0  0  0  0  0
   12.7292   10.9960   18.4597 C   0  0  0  0  0  0  0  0  0  0  0  0
    9.3798    6.6793   23.6625 C   0  0  0  0  0  0  0  0  0  0  0  0
   14.7425   10.0739   19.0802 O   0  0  0  0  0  0  0  0  0  0  0  0
    5.1894    9.4673   20.7118 C   0  0  0  0  0  0  0  0  0  0  0  0
    7.3773    8.8224   21.4870 C   0  0  0  0  0  0  0  0  0  0  0  0
    8.4391    6.6439   21.0235 C   0  0  0  0  0  0  0  0  0  0  0  0
    9.6494   11.1353   20.4167 C   0  0  0  0  0  0  0  0  0  0  0  0
    8.1431    7.6829   21.9046 C   0  0  0  0  0  0  0  0  0  0  0  0
    7.7796   10.1314   21.5115 N   0  0  0  0  0  0  0  0  0  0  0  0
    9.2768    5.6183   21.4437 C   0  0  0  0  0  0  0  0  0  0  0  0
    8.6315    7.7322   23.1768 C   0  0  0  0  0  0  0  0  0  0  0  0
   13.0537    9.9821   20.5781 C   0  0  0  0  0  0  0  0  0  0  0  0
   10.3850    4.6575   23.2386 O   0  0  0  0  0  0  0  0  0  0  0  0
    4.2069    6.8450   20.7994 C   0  0  0  0  0  0  0  0  0  0  0  0
    3.0726   10.1043   19.8522 O   0  0  0  0  0  0  0  0  0  0  0  0
    5.5057    7.1196   21.1155 C   0  0  0  0  0  0  0  0  0  0  0  0
    7.0367   11.0229   21.9948 O   0  0  0  0  0  0  0  0  0  0  0  0
  1  8  4  0
  1 12  4  0
  2  9  1  0
  2 11  4  0
  2 25  4  0
  3 12  4  0
  3 14  1  0
  3 23  4  0
  4 13  4  0
  4 21  4  0
  4 24  1  0
  5  8  4  0
  5 23  4  0
  6 18  2  0
  7 15  4  0
  7 16  1  0
  7 27  4  0
  8 18  1  0
 10 18  1  0
 10 20  1  0
 11 15  4  0
 11 26  1  0
 13 22  4  0
 16 19  1  0
 16 20  2  0
 17 19  4  0
 17 21  4  0
 19 22  4  0
 20 28  1  0
 25 27  4  0
M  END
$$$$

 Created by Python create_sdf_string function

 28 30  0  0  0  0  0  0  0  0999 V2000
   11.4592   11.2893   18.7941 C   0  0  0  0  0  0  0  0  0  0  0  0
    3.4202    7.9009   20.3866 C   0  0  0  0  0  0  0  0  0  0  0  0
   13.5280   10.3522   19.3586 C   0  0  0  0  0  0  0  0  0  0  0  0
    9.6923    5.6468   22.7891 C   0  0  0  0  0  0  0  0  0  0  0  0
   11.7756   10.2554   20.8841 N   0  0  0  0  0  0  0  0  0  0  0  0
    8.9876   11.9370   19.8757 O   0  0  0  0  0  0  0  0  0  0  0  0
    6.0167    8.4478   21.1089 C   0  0  0  0  0  0  0  0  0  0  0  0
   11.0002   10.8890   20.0262 C   0  0  0  0  0  0  0  0  0  0  0  0
    2.1721    7.7393   20.0315 O   0  0  0  0  0  0  0  0  0  0  0  0
    9.1107   10.3880   21.3769 N   0  0  0  0  0  0  0  0  0  0  0  0
    3.9102    9.2008   20.3124 C   0  0  0  0  0  0  0  0  0  0  0  0
   12.7292   10.9960   18.4597 C   0  0  0  0  0  0  0  0  0  0  0  0
    9.3798    6.6793   23.6625 C   0  0  0  0  0  0  0  0  0  0  0  0
   14.7425   10.0739   19.0802 O   0  0  0  0  0  0  0  0  0  0  0  0
    5.1894    9.4673   20.7118 C   0  0  0  0  0  0  0  0  0  0  0  0
    7.3773    8.8224   21.4870 C   0  0  0  0  0  0  0  0  0  0  0  0
    8.4391    6.6439   21.0235 C   0  0  0  0  0  0  0  0  0  0  0  0
    9.6494   11.1353   20.4167 C   0  0  0  0  0  0  0  0  0  0  0  0
    8.1431    7.6829   21.9046 C   0  0  0  0  0  0  0  0  0  0  0  0
    7.7796   10.1314   21.5115 N   0  0  0  0  0  0  0  0  0  0  0  0
    9.2768    5.6183   21.4437 C   0  0  0  0  0  0  0  0  0  0  0  0
    8.6315    7.7322   23.1768 C   0  0  0  0  0  0  0  0  0  0  0  0
   13.0537    9.9821   20.5781 C   0  0  0  0  0  0  0  0  0  0  0  0
   10.3850    4.6575   23.2386 O   0  0  0  0  0  0  0  0  0  0  0  0
    4.2069    6.8450   20.7994 C   0  0  0  0  0  0  0  0  0  0  0  0
    3.0726   10.1043   19.8522 O   0  0  0  0  0  0  0  0  0  0  0  0
    5.5057    7.1196   21.1155 C   0  0  0  0  0  0  0  0  0  0  0  0
    7.0367   11.0229   21.9948 O   0  0  0  0  0  0  0  0  0  0  0  0
  1  8  4  0
  1 12  4  0
  2  9  1  0
  2 11  4  0
  2 25  4  0
  3 12  4  0
  3 14  1  0
  3 23  4  0
  4 13  4  0
  4 21  4  0
  4 24  1  0
  5  8  4  0
  5 23  4  0
  6 18  2  0
  7 15  4  0
  7 16  1  0
  7 27  4  0
  8 18  1  0
 10 18  1  0
 10 20  1  0
 11 15  4  0
 11 26  1  0
 13 22  4  0
 16 19  1  0
 16 20  2  0
 17 19  4  0
 17 21  4  0
 19 22  4  0
 20 28  1  0
 25 27  4  0
M  END
$$$$

 Created by Python create_sdf_string function

 28 30  0  0  0  0  0  0  0  0999 V2000
   11.4592   11.2893   18.7941 C   0  0  0  0  0  0  0  0  0  0  0  0
    3.4202    7.9009   20.3866 C   0  0  0  0  0  0  0  0  0  0  0  0
   13.5280   10.3522   19.3586 C   0  0  0  0  0  0  0  0  0  0  0  0
    9.6923    5.6468   22.7891 C   0  0  0  0  0  0  0  0  0  0  0  0
   11.7756   10.2554   20.8841 N   0  0  0  0  0  0  0  0  0  0  0  0
    8.9876   11.9370   19.8757 O   0  0  0  0  0  0  0  0  0  0  0  0
    6.0167    8.4478   21.1089 C   0  0  0  0  0  0  0  0  0  0  0  0
   11.0002   10.8890   20.0262 C   0  0  0  0  0  0  0  0  0  0  0  0
    2.1721    7.7393   20.0315 O   0  0  0  0  0  0  0  0  0  0  0  0
    9.1107   10.3880   21.3769 N   0  0  0  0  0  0  0  0  0  0  0  0
    3.9102    9.2008   20.3124 C   0  0  0  0  0  0  0  0  0  0  0  0
   12.7292   10.9960   18.4597 C   0  0  0  0  0  0  0  0  0  0  0  0
    9.3798    6.6793   23.6625 C   0  0  0  0  0  0  0  0  0  0  0  0
   14.7425   10.0739   19.0802 O   0  0  0  0  0  0  0  0  0  0  0  0
    5.1894    9.4673   20.7118 C   0  0  0  0  0  0  0  0  0  0  0  0
    7.3773    8.8224   21.4870 C   0  0  0  0  0  0  0  0  0  0  0  0
    8.4391    6.6439   21.0235 C   0  0  0  0  0  0  0  0  0  0  0  0
    9.6494   11.1353   20.4167 C   0  0  0  0  0  0  0  0  0  0  0  0
    8.1431    7.6829   21.9046 C   0  0  0  0  0  0  0  0  0  0  0  0
    7.7796   10.1314   21.5115 N   0  0  0  0  0  0  0  0  0  0  0  0
    9.2768    5.6183   21.4437 C   0  0  0  0  0  0  0  0  0  0  0  0
    8.6315    7.7322   23.1768 C   0  0  0  0  0  0  0  0  0  0  0  0
   13.0537    9.9821   20.5781 C   0  0  0  0  0  0  0  0  0  0  0  0
   10.3850    4.6575   23.2386 O   0  0  0  0  0  0  0  0  0  0  0  0
    4.2069    6.8450   20.7994 C   0  0  0  0  0  0  0  0  0  0  0  0
    3.0726   10.1043   19.8522 O   0  0  0  0  0  0  0  0  0  0  0  0
    5.5057    7.1196   21.1155 C   0  0  0  0  0  0  0  0  0  0  0  0
    7.0367   11.0229   21.9948 O   0  0  0  0  0  0  0  0  0  0  0  0
  1  8  4  0
  1 12  4  0
  2  9  1  0
  2 11  4  0
  2 25  4  0
  3 12  4  0
  3 14  1  0
  3 23  4  0
  4 13  4  0
  4 21  4  0
  4 24  1  0
  5  8  4  0
  5 23  4  0
  6 18  2  0
  7 15  4  0
  7 16  1  0
  7 27  4  0
  8 18  1  0
 10 18  1  0
 10 20  1  0
 11 15  4  0
 11 26  1  0
 13 22  4  0
 16 19  1  0
 16 20  2  0
 17 19  4  0
 17 21  4  0
 19 22  4  0
 20 28  1  0
 25 27  4  0
M  END
$$$$

 Created by Python create_sdf_string function

 28 30  0  0  0  0  0  0  0  0999 V2000
   11.4592   11.2893   18.7941 C   0  0  0  0  0  0  0  0  0  0  0  0
    3.4202    7.9009   20.3866 C   0  0  0  0  0  0  0  0  0  0  0  0
   13.5280   10.3522   19.3586 C   0  0  0  0  0  0  0  0  0  0  0  0
    9.6923    5.6468   22.7891 C   0  0  0  0  0  0  0  0  0  0  0  0
   11.7756   10.2554   20.8841 N   0  0  0  0  0  0  0  0  0  0  0  0
    8.9876   11.9370   19.8757 O   0  0  0  0  0  0  0  0  0  0  0  0
    6.0167    8.4478   21.1089 C   0  0  0  0  0  0  0  0  0  0  0  0
   11.0002   10.8890   20.0262 C   0  0  0  0  0  0  0  0  0  0  0  0
    2.1721    7.7393   20.0315 O   0  0  0  0  0  0  0  0  0  0  0  0
    9.1107   10.3880   21.3769 N   0  0  0  0  0  0  0  0  0  0  0  0
    3.9102    9.2008   20.3124 C   0  0  0  0  0  0  0  0  0  0  0  0
   12.7292   10.9960   18.4597 C   0  0  0  0  0  0  0  0  0  0  0  0
    9.3798    6.6793   23.6625 C   0  0  0  0  0  0  0  0  0  0  0  0
   14.7425   10.0739   19.0802 O   0  0  0  0  0  0  0  0  0  0  0  0
    5.1894    9.4673   20.7118 C   0  0  0  0  0  0  0  0  0  0  0  0
    7.3773    8.8224   21.4870 C   0  0  0  0  0  0  0  0  0  0  0  0
    8.4391    6.6439   21.0235 C   0  0  0  0  0  0  0  0  0  0  0  0
    9.6494   11.1353   20.4167 C   0  0  0  0  0  0  0  0  0  0  0  0
    8.1431    7.6829   21.9046 C   0  0  0  0  0  0  0  0  0  0  0  0
    7.7796   10.1314   21.5115 N   0  0  0  0  0  0  0  0  0  0  0  0
    9.2768    5.6183   21.4437 C   0  0  0  0  0  0  0  0  0  0  0  0
    8.6315    7.7322   23.1768 C   0  0  0  0  0  0  0  0  0  0  0  0
   13.0537    9.9821   20.5781 C   0  0  0  0  0  0  0  0  0  0  0  0
   10.3850    4.6575   23.2386 O   0  0  0  0  0  0  0  0  0  0  0  0
    4.2069    6.8450   20.7994 C   0  0  0  0  0  0  0  0  0  0  0  0
    3.0726   10.1043   19.8522 O   0  0  0  0  0  0  0  0  0  0  0  0
    5.5057    7.1196   21.1155 C   0  0  0  0  0  0  0  0  0  0  0  0
    7.0367   11.0229   21.9948 O   0  0  0  0  0  0  0  0  0  0  0  0
  1  8  4  0
  1 12  4  0
  2  9  1  0
  2 11  4  0
  2 25  4  0
  3 12  4  0
  3 14  1  0
  3 23  4  0
  4 13  4  0
  4 21  4  0
  4 24  1  0
  5  8  4  0
  5 23  4  0
  6 18  2  0
  7 15  4  0
  7 16  1  0
  7 27  4  0
  8 18  1  0
 10 18  1  0
 10 20  1  0
 11 15  4  0
 11 26  1  0
 13 22  4  0
 16 19  1  0
 16 20  2  0
 17 19  4  0
 17 21  4  0
 19 22  4  0
 20 28  1  0
 25 27  4  0
M  END
$$$$

 Created by Python create_sdf_string function

 28 30  0  0  0  0  0  0  0  0999 V2000
   11.4592   11.2893   18.7941 C   0  0  0  0  0  0  0  0  0  0  0  0
    3.4202    7.9009   20.3866 C   0  0  0  0  0  0  0  0  0  0  0  0
   13.5280   10.3522   19.3586 C   0  0  0  0  0  0  0  0  0  0  0  0
    9.6923    5.6468   22.7891 C   0  0  0  0  0  0  0  0  0  0  0  0
   11.7756   10.2554   20.8841 N   0  0  0  0  0  0  0  0  0  0  0  0
    8.9876   11.9370   19.8757 O   0  0  0  0  0  0  0  0  0  0  0  0
    6.0167    8.4478   21.1089 C   0  0  0  0  0  0  0  0  0  0  0  0
   11.0002   10.8890   20.0262 C   0  0  0  0  0  0  0  0  0  0  0  0
    2.1721    7.7393   20.0315 O   0  0  0  0  0  0  0  0  0  0  0  0
    9.1107   10.3880   21.3769 N   0  0  0  0  0  0  0  0  0  0  0  0
    3.9102    9.2008   20.3124 C   0  0  0  0  0  0  0  0  0  0  0  0
   12.7292   10.9960   18.4597 C   0  0  0  0  0  0  0  0  0  0  0  0
    9.3798    6.6793   23.6625 C   0  0  0  0  0  0  0  0  0  0  0  0
   14.7425   10.0739   19.0802 O   0  0  0  0  0  0  0  0  0  0  0  0
    5.1894    9.4673   20.7118 C   0  0  0  0  0  0  0  0  0  0  0  0
    7.3773    8.8224   21.4870 C   0  0  0  0  0  0  0  0  0  0  0  0
    8.4391    6.6439   21.0235 C   0  0  0  0  0  0  0  0  0  0  0  0
    9.6494   11.1353   20.4167 C   0  0  0  0  0  0  0  0  0  0  0  0
    8.1431    7.6829   21.9046 C   0  0  0  0  0  0  0  0  0  0  0  0
    7.7796   10.1314   21.5115 N   0  0  0  0  0  0  0  0  0  0  0  0
    9.2768    5.6183   21.4437 C   0  0  0  0  0  0  0  0  0  0  0  0
    8.6315    7.7322   23.1768 C   0  0  0  0  0  0  0  0  0  0  0  0
   13.0537    9.9821   20.5781 C   0  0  0  0  0  0  0  0  0  0  0  0
   10.3850    4.6575   23.2386 O   0  0  0  0  0  0  0  0  0  0  0  0
    4.2069    6.8450   20.7994 C   0  0  0  0  0  0  0  0  0  0  0  0
    3.0726   10.1043   19.8522 O   0  0  0  0  0  0  0  0  0  0  0  0
    5.5057    7.1196   21.1155 C   0  0  0  0  0  0  0  0  0  0  0  0
    7.0367   11.0229   21.9948 O   0  0  0  0  0  0  0  0  0  0  0  0
  1  8  4  0
  1 12  4  0
  2  9  1  0
  2 11  4  0
  2 25  4  0
  3 12  4  0
  3 14  1  0
  3 23  4  0
  4 13  4  0
  4 21  4  0
  4 24  1  0
  5  8  4  0
  5 23  4  0
  6 18  2  0
  7 15  4  0
  7 16  1  0
  7 27  4  0
  8 18  1  0
 10 18  1  0
 10 20  1  0
 11 15  4  0
 11 26  1  0
 13 22  4  0
 16 19  1  0
 16 20  2  0
 17 19  4  0
 17 21  4  0
 19 22  4  0
 20 28  1  0
 25 27  4  0
M  END
$$$$

 Created by Python create_sdf_string function

 28 30  0  0  0  0  0  0  0  0999 V2000
   11.4592   11.2893   18.7941 C   0  0  0  0  0  0  0  0  0  0  0  0
    3.4202    7.9009   20.3866 C   0  0  0  0  0  0  0  0  0  0  0  0
   13.5280   10.3522   19.3586 C   0  0  0  0  0  0  0  0  0  0  0  0
    9.6923    5.6468   22.7891 C   0  0  0  0  0  0  0  0  0  0  0  0
   11.7756   10.2554   20.8841 N   0  0  0  0  0  0  0  0  0  0  0  0
    8.9876   11.9370   19.8757 O   0  0  0  0  0  0  0  0  0  0  0  0
    6.0167    8.4478   21.1089 C   0  0  0  0  0  0  0  0  0  0  0  0
   11.0002   10.8890   20.0262 C   0  0  0  0  0  0  0  0  0  0  0  0
    2.1721    7.7393   20.0315 O   0  0  0  0  0  0  0  0  0  0  0  0
    9.1107   10.3880   21.3769 N   0  0  0  0  0  0  0  0  0  0  0  0
    3.9102    9.2008   20.3124 C   0  0  0  0  0  0  0  0  0  0  0  0
   12.7292   10.9960   18.4597 C   0  0  0  0  0  0  0  0  0  0  0  0
    9.3798    6.6793   23.6625 C   0  0  0  0  0  0  0  0  0  0  0  0
   14.7425   10.0739   19.0802 O   0  0  0  0  0  0  0  0  0  0  0  0
    5.1894    9.4673   20.7118 C   0  0  0  0  0  0  0  0  0  0  0  0
    7.3773    8.8224   21.4870 C   0  0  0  0  0  0  0  0  0  0  0  0
    8.4391    6.6439   21.0235 C   0  0  0  0  0  0  0  0  0  0  0  0
    9.6494   11.1353   20.4167 C   0  0  0  0  0  0  0  0  0  0  0  0
    8.1431    7.6829   21.9046 C   0  0  0  0  0  0  0  0  0  0  0  0
    7.7796   10.1314   21.5115 N   0  0  0  0  0  0  0  0  0  0  0  0
    9.2768    5.6183   21.4437 C   0  0  0  0  0  0  0  0  0  0  0  0
    8.6315    7.7322   23.1768 C   0  0  0  0  0  0  0  0  0  0  0  0
   13.0537    9.9821   20.5781 C   0  0  0  0  0  0  0  0  0  0  0  0
   10.3850    4.6575   23.2386 O   0  0  0  0  0  0  0  0  0  0  0  0
    4.2069    6.8450   20.7994 C   0  0  0  0  0  0  0  0  0  0  0  0
    3.0726   10.1043   19.8522 O   0  0  0  0  0  0  0  0  0  0  0  0
    5.5057    7.1196   21.1155 C   0  0  0  0  0  0  0  0  0  0  0  0
    7.0367   11.0229   21.9948 O   0  0  0  0  0  0  0  0  0  0  0  0
  1  8  4  0
  1 12  4  0
  2  9  1  0
  2 11  4  0
  2 25  4  0
  3 12  4  0
  3 14  1  0
  3 23  4  0
  4 13  4  0
  4 21  4  0
  4 24  1  0
  5  8  4  0
  5 23  4  0
  6 18  2  0
  7 15  4  0
  7 16  1  0
  7 27  4  0
  8 18  1  0
 10 18  1  0
 10 20  1  0
 11 15  4  0
 11 26  1  0
 13 22  4  0
 16 19  1  0
 16 20  2  0
 17 19  4  0
 17 21  4  0
 19 22  4  0
 20 28  1  0
 25 27  4  0
M  END
$$$$

 Created by Python create_sdf_string function

 28 30  0  0  0  0  0  0  0  0999 V2000
   11.4592   11.2893   18.7941 C   0  0  0  0  0  0  0  0  0  0  0  0
    3.4202    7.9009   20.3866 C   0  0  0  0  0  0  0  0  0  0  0  0
   13.5280   10.3522   19.3586 C   0  0  0  0  0  0  0  0  0  0  0  0
    9.6923    5.6468   22.7891 C   0  0  0  0  0  0  0  0  0  0  0  0
   11.7756   10.2554   20.8841 N   0  0  0  0  0  0  0  0  0  0  0  0
    8.9876   11.9370   19.8757 O   0  0  0  0  0  0  0  0  0  0  0  0
    6.0167    8.4478   21.1089 C   0  0  0  0  0  0  0  0  0  0  0  0
   11.0002   10.8890   20.0262 C   0  0  0  0  0  0  0  0  0  0  0  0
    2.1721    7.7393   20.0315 O   0  0  0  0  0  0  0  0  0  0  0  0
    9.1107   10.3880   21.3769 N   0  0  0  0  0  0  0  0  0  0  0  0
    3.9102    9.2008   20.3124 C   0  0  0  0  0  0  0  0  0  0  0  0
   12.7292   10.9960   18.4597 C   0  0  0  0  0  0  0  0  0  0  0  0
    9.3798    6.6793   23.6625 C   0  0  0  0  0  0  0  0  0  0  0  0
   14.7425   10.0739   19.0802 O   0  0  0  0  0  0  0  0  0  0  0  0
    5.1894    9.4673   20.7118 C   0  0  0  0  0  0  0  0  0  0  0  0
    7.3773    8.8224   21.4870 C   0  0  0  0  0  0  0  0  0  0  0  0
    8.4391    6.6439   21.0235 C   0  0  0  0  0  0  0  0  0  0  0  0
    9.6494   11.1353   20.4167 C   0  0  0  0  0  0  0  0  0  0  0  0
    8.1431    7.6829   21.9046 C   0  0  0  0  0  0  0  0  0  0  0  0
    7.7796   10.1314   21.5115 N   0  0  0  0  0  0  0  0  0  0  0  0
    9.2768    5.6183   21.4437 C   0  0  0  0  0  0  0  0  0  0  0  0
    8.6315    7.7322   23.1768 C   0  0  0  0  0  0  0  0  0  0  0  0
   13.0537    9.9821   20.5781 C   0  0  0  0  0  0  0  0  0  0  0  0
   10.3850    4.6575   23.2386 O   0  0  0  0  0  0  0  0  0  0  0  0
    4.2069    6.8450   20.7994 C   0  0  0  0  0  0  0  0  0  0  0  0
    3.0726   10.1043   19.8522 O   0  0  0  0  0  0  0  0  0  0  0  0
    5.5057    7.1196   21.1155 C   0  0  0  0  0  0  0  0  0  0  0  0
    7.0367   11.0229   21.9948 O   0  0  0  0  0  0  0  0  0  0  0  0
  1  8  4  0
  1 12  4  0
  2  9  1  0
  2 11  4  0
  2 25  4  0
  3 12  4  0
  3 14  1  0
  3 23  4  0
  4 13  4  0
  4 21  4  0
  4 24  1  0
  5  8  4  0
  5 23  4  0
  6 18  2  0
  7 15  4  0
  7 16  1  0
  7 27  4  0
  8 18  1  0
 10 18  1  0
 10 20  1  0
 11 15  4  0
 11 26  1  0
 13 22  4  0
 16 19  1  0
 16 20  2  0
 17 19  4  0
 17 21  4  0
 19 22  4  0
 20 28  1  0
 25 27  4  0
M  END
$$$$

 Created by Python create_sdf_string function

 28 30  0  0  0  0  0  0  0  0999 V2000
   11.4592   11.2893   18.7941 C   0  0  0  0  0  0  0  0  0  0  0  0
    3.4202    7.9009   20.3866 C   0  0  0  0  0  0  0  0  0  0  0  0
   13.5280   10.3522   19.3586 C   0  0  0  0  0  0  0  0  0  0  0  0
    9.6923    5.6468   22.7891 C   0  0  0  0  0  0  0  0  0  0  0  0
   11.7756   10.2554   20.8841 N   0  0  0  0  0  0  0  0  0  0  0  0
    8.9876   11.9370   19.8757 O   0  0  0  0  0  0  0  0  0  0  0  0
    6.0167    8.4478   21.1089 C   0  0  0  0  0  0  0  0  0  0  0  0
   11.0002   10.8890   20.0262 C   0  0  0  0  0  0  0  0  0  0  0  0
    2.1721    7.7393   20.0315 O   0  0  0  0  0  0  0  0  0  0  0  0
    9.1107   10.3880   21.3769 N   0  0  0  0  0  0  0  0  0  0  0  0
    3.9102    9.2008   20.3124 C   0  0  0  0  0  0  0  0  0  0  0  0
   12.7292   10.9960   18.4597 C   0  0  0  0  0  0  0  0  0  0  0  0
    9.3798    6.6793   23.6625 C   0  0  0  0  0  0  0  0  0  0  0  0
   14.7425   10.0739   19.0802 O   0  0  0  0  0  0  0  0  0  0  0  0
    5.1894    9.4673   20.7118 C   0  0  0  0  0  0  0  0  0  0  0  0
    7.3773    8.8224   21.4870 C   0  0  0  0  0  0  0  0  0  0  0  0
    8.4391    6.6439   21.0235 C   0  0  0  0  0  0  0  0  0  0  0  0
    9.6494   11.1353   20.4167 C   0  0  0  0  0  0  0  0  0  0  0  0
    8.1431    7.6829   21.9046 C   0  0  0  0  0  0  0  0  0  0  0  0
    7.7796   10.1314   21.5115 N   0  0  0  0  0  0  0  0  0  0  0  0
    9.2768    5.6183   21.4437 C   0  0  0  0  0  0  0  0  0  0  0  0
    8.6315    7.7322   23.1768 C   0  0  0  0  0  0  0  0  0  0  0  0
   13.0537    9.9821   20.5781 C   0  0  0  0  0  0  0  0  0  0  0  0
   10.3850    4.6575   23.2386 O   0  0  0  0  0  0  0  0  0  0  0  0
    4.2069    6.8450   20.7994 C   0  0  0  0  0  0  0  0  0  0  0  0
    3.0726   10.1043   19.8522 O   0  0  0  0  0  0  0  0  0  0  0  0
    5.5057    7.1196   21.1155 C   0  0  0  0  0  0  0  0  0  0  0  0
    7.0367   11.0229   21.9948 O   0  0  0  0  0  0  0  0  0  0  0  0
  1  8  4  0
  1 12  4  0
  2  9  1  0
  2 11  4  0
  2 25  4  0
  3 12  4  0
  3 14  1  0
  3 23  4  0
  4 13  4  0
  4 21  4  0
  4 24  1  0
  5  8  4  0
  5 23  4  0
  6 18  2  0
  7 15  4  0
  7 16  1  0
  7 27  4  0
  8 18  1  0
 10 18  1  0
 10 20  1  0
 11 15  4  0
 11 26  1  0
 13 22  4  0
 16 19  1  0
 16 20  2  0
 17 19  4  0
 17 21  4  0
 19 22  4  0
 20 28  1  0
 25 27  4  0
M  END
$$$$

 Created by Python create_sdf_string function

 28 30  0  0  0  0  0  0  0  0999 V2000
   11.4592   11.2893   18.7941 C   0  0  0  0  0  0  0  0  0  0  0  0
    3.4202    7.9009   20.3866 C   0  0  0  0  0  0  0  0  0  0  0  0
   13.5280   10.3522   19.3586 C   0  0  0  0  0  0  0  0  0  0  0  0
    9.6923    5.6468   22.7891 C   0  0  0  0  0  0  0  0  0  0  0  0
   11.7756   10.2554   20.8841 N   0  0  0  0  0  0  0  0  0  0  0  0
    8.9876   11.9370   19.8757 O   0  0  0  0  0  0  0  0  0  0  0  0
    6.0167    8.4478   21.1089 C   0  0  0  0  0  0  0  0  0  0  0  0
   11.0002   10.8890   20.0262 C   0  0  0  0  0  0  0  0  0  0  0  0
    2.1721    7.7393   20.0315 O   0  0  0  0  0  0  0  0  0  0  0  0
    9.1107   10.3880   21.3769 N   0  0  0  0  0  0  0  0  0  0  0  0
    3.9102    9.2008   20.3124 C   0  0  0  0  0  0  0  0  0  0  0  0
   12.7292   10.9960   18.4597 C   0  0  0  0  0  0  0  0  0  0  0  0
    9.3798    6.6793   23.6625 C   0  0  0  0  0  0  0  0  0  0  0  0
   14.7425   10.0739   19.0802 O   0  0  0  0  0  0  0  0  0  0  0  0
    5.1894    9.4673   20.7118 C   0  0  0  0  0  0  0  0  0  0  0  0
    7.3773    8.8224   21.4870 C   0  0  0  0  0  0  0  0  0  0  0  0
    8.4391    6.6439   21.0235 C   0  0  0  0  0  0  0  0  0  0  0  0
    9.6494   11.1353   20.4167 C   0  0  0  0  0  0  0  0  0  0  0  0
    8.1431    7.6829   21.9046 C   0  0  0  0  0  0  0  0  0  0  0  0
    7.7796   10.1314   21.5115 N   0  0  0  0  0  0  0  0  0  0  0  0
    9.2768    5.6183   21.4437 C   0  0  0  0  0  0  0  0  0  0  0  0
    8.6315    7.7322   23.1768 C   0  0  0  0  0  0  0  0  0  0  0  0
   13.0537    9.9821   20.5781 C   0  0  0  0  0  0  0  0  0  0  0  0
   10.3850    4.6575   23.2386 O   0  0  0  0  0  0  0  0  0  0  0  0
    4.2069    6.8450   20.7994 C   0  0  0  0  0  0  0  0  0  0  0  0
    3.0726   10.1043   19.8522 O   0  0  0  0  0  0  0  0  0  0  0  0
    5.5057    7.1196   21.1155 C   0  0  0  0  0  0  0  0  0  0  0  0
    7.0367   11.0229   21.9948 O   0  0  0  0  0  0  0  0  0  0  0  0
  1  8  4  0
  1 12  4  0
  2  9  1  0
  2 11  4  0
  2 25  4  0
  3 12  4  0
  3 14  1  0
  3 23  4  0
  4 13  4  0
  4 21  4  0
  4 24  1  0
  5  8  4  0
  5 23  4  0
  6 18  2  0
  7 15  4  0
  7 16  1  0
  7 27  4  0
  8 18  1  0
 10 18  1  0
 10 20  1  0
 11 15  4  0
 11 26  1  0
 13 22  4  0
 16 19  1  0
 16 20  2  0
 17 19  4  0
 17 21  4  0
 19 22  4  0
 20 28  1  0
 25 27  4  0
M  END
$$$$

 Created by Python create_sdf_string function

 28 30  0  0  0  0  0  0  0  0999 V2000
   11.4592   11.2893   18.7941 C   0  0  0  0  0  0  0  0  0  0  0  0
    3.4202    7.9009   20.3866 C   0  0  0  0  0  0  0  0  0  0  0  0
   13.5280   10.3522   19.3586 C   0  0  0  0  0  0  0  0  0  0  0  0
    9.6923    5.6468   22.7891 C   0  0  0  0  0  0  0  0  0  0  0  0
   11.7756   10.2554   20.8841 N   0  0  0  0  0  0  0  0  0  0  0  0
    8.9876   11.9370   19.8757 O   0  0  0  0  0  0  0  0  0  0  0  0
    6.0167    8.4478   21.1089 C   0  0  0  0  0  0  0  0  0  0  0  0
   11.0002   10.8890   20.0262 C   0  0  0  0  0  0  0  0  0  0  0  0
    2.1721    7.7393   20.0315 O   0  0  0  0  0  0  0  0  0  0  0  0
    9.1107   10.3880   21.3769 N   0  0  0  0  0  0  0  0  0  0  0  0
    3.9102    9.2008   20.3124 C   0  0  0  0  0  0  0  0  0  0  0  0
   12.7292   10.9960   18.4597 C   0  0  0  0  0  0  0  0  0  0  0  0
    9.3798    6.6793   23.6625 C   0  0  0  0  0  0  0  0  0  0  0  0
   14.7425   10.0739   19.0802 O   0  0  0  0  0  0  0  0  0  0  0  0
    5.1894    9.4673   20.7118 C   0  0  0  0  0  0  0  0  0  0  0  0
    7.3773    8.8224   21.4870 C   0  0  0  0  0  0  0  0  0  0  0  0
    8.4391    6.6439   21.0235 C   0  0  0  0  0  0  0  0  0  0  0  0
    9.6494   11.1353   20.4167 C   0  0  0  0  0  0  0  0  0  0  0  0
    8.1431    7.6829   21.9046 C   0  0  0  0  0  0  0  0  0  0  0  0
    7.7796   10.1314   21.5115 N   0  0  0  0  0  0  0  0  0  0  0  0
    9.2768    5.6183   21.4437 C   0  0  0  0  0  0  0  0  0  0  0  0
    8.6315    7.7322   23.1768 C   0  0  0  0  0  0  0  0  0  0  0  0
   13.0537    9.9821   20.5781 C   0  0  0  0  0  0  0  0  0  0  0  0
   10.3850    4.6575   23.2386 O   0  0  0  0  0  0  0  0  0  0  0  0
    4.2069    6.8450   20.7994 C   0  0  0  0  0  0  0  0  0  0  0  0
    3.0726   10.1043   19.8522 O   0  0  0  0  0  0  0  0  0  0  0  0
    5.5057    7.1196   21.1155 C   0  0  0  0  0  0  0  0  0  0  0  0
    7.0367   11.0229   21.9948 O   0  0  0  0  0  0  0  0  0  0  0  0
  1  8  4  0
  1 12  4  0
  2  9  1  0
  2 11  4  0
  2 25  4  0
  3 12  4  0
  3 14  1  0
  3 23  4  0
  4 13  4  0
  4 21  4  0
  4 24  1  0
  5  8  4  0
  5 23  4  0
  6 18  2  0
  7 15  4  0
  7 16  1  0
  7 27  4  0
  8 18  1  0
 10 18  1  0
 10 20  1  0
 11 15  4  0
 11 26  1  0
 13 22  4  0
 16 19  1  0
 16 20  2  0
 17 19  4  0
 17 21  4  0
 19 22  4  0
 20 28  1  0
 25 27  4  0
M  END
$$$$

 Created by Python create_sdf_string function

 28 30  0  0  0  0  0  0  0  0999 V2000
   11.4592   11.2893   18.7941 C   0  0  0  0  0  0  0  0  0  0  0  0
    3.4202    7.9009   20.3866 C   0  0  0  0  0  0  0  0  0  0  0  0
   13.5280   10.3522   19.3586 C   0  0  0  0  0  0  0  0  0  0  0  0
    9.6923    5.6468   22.7891 C   0  0  0  0  0  0  0  0  0  0  0  0
   11.7756   10.2554   20.8841 N   0  0  0  0  0  0  0  0  0  0  0  0
    8.9876   11.9370   19.8757 O   0  0  0  0  0  0  0  0  0  0  0  0
    6.0167    8.4478   21.1089 C   0  0  0  0  0  0  0  0  0  0  0  0
   11.0002   10.8890   20.0262 C   0  0  0  0  0  0  0  0  0  0  0  0
    2.1721    7.7393   20.0315 O   0  0  0  0  0  0  0  0  0  0  0  0
    9.1107   10.3880   21.3769 N   0  0  0  0  0  0  0  0  0  0  0  0
    3.9102    9.2008   20.3124 C   0  0  0  0  0  0  0  0  0  0  0  0
   12.7292   10.9960   18.4597 C   0  0  0  0  0  0  0  0  0  0  0  0
    9.3798    6.6793   23.6625 C   0  0  0  0  0  0  0  0  0  0  0  0
   14.7425   10.0739   19.0802 O   0  0  0  0  0  0  0  0  0  0  0  0
    5.1894    9.4673   20.7118 C   0  0  0  0  0  0  0  0  0  0  0  0
    7.3773    8.8224   21.4870 C   0  0  0  0  0  0  0  0  0  0  0  0
    8.4391    6.6439   21.0235 C   0  0  0  0  0  0  0  0  0  0  0  0
    9.6494   11.1353   20.4167 C   0  0  0  0  0  0  0  0  0  0  0  0
    8.1431    7.6829   21.9046 C   0  0  0  0  0  0  0  0  0  0  0  0
    7.7796   10.1314   21.5115 N   0  0  0  0  0  0  0  0  0  0  0  0
    9.2768    5.6183   21.4437 C   0  0  0  0  0  0  0  0  0  0  0  0
    8.6315    7.7322   23.1768 C   0  0  0  0  0  0  0  0  0  0  0  0
   13.0537    9.9821   20.5781 C   0  0  0  0  0  0  0  0  0  0  0  0
   10.3850    4.6575   23.2386 O   0  0  0  0  0  0  0  0  0  0  0  0
    4.2069    6.8450   20.7994 C   0  0  0  0  0  0  0  0  0  0  0  0
    3.0726   10.1043   19.8522 O   0  0  0  0  0  0  0  0  0  0  0  0
    5.5057    7.1196   21.1155 C   0  0  0  0  0  0  0  0  0  0  0  0
    7.0367   11.0229   21.9948 O   0  0  0  0  0  0  0  0  0  0  0  0
  1  8  4  0
  1 12  4  0
  2  9  1  0
  2 11  4  0
  2 25  4  0
  3 12  4  0
  3 14  1  0
  3 23  4  0
  4 13  4  0
  4 21  4  0
  4 24  1  0
  5  8  4  0
  5 23  4  0
  6 18  2  0
  7 15  4  0
  7 16  1  0
  7 27  4  0
  8 18  1  0
 10 18  1  0
 10 20  1  0
 11 15  4  0
 11 26  1  0
 13 22  4  0
 16 19  1  0
 16 20  2  0
 17 19  4  0
 17 21  4  0
 19 22  4  0
 20 28  1  0
 25 27  4  0
M  END
$$$$

 Created by Python create_sdf_string function

 28 30  0  0  0  0  0  0  0  0999 V2000
   11.4592   11.2893   18.7941 C   0  0  0  0  0  0  0  0  0  0  0  0
    3.4202    7.9009   20.3866 C   0  0  0  0  0  0  0  0  0  0  0  0
   13.5280   10.3522   19.3586 C   0  0  0  0  0  0  0  0  0  0  0  0
    9.6923    5.6468   22.7891 C   0  0  0  0  0  0  0  0  0  0  0  0
   11.7756   10.2554   20.8841 N   0  0  0  0  0  0  0  0  0  0  0  0
    8.9876   11.9370   19.8757 O   0  0  0  0  0  0  0  0  0  0  0  0
    6.0167    8.4478   21.1089 C   0  0  0  0  0  0  0  0  0  0  0  0
   11.0002   10.8890   20.0262 C   0  0  0  0  0  0  0  0  0  0  0  0
    2.1721    7.7393   20.0315 O   0  0  0  0  0  0  0  0  0  0  0  0
    9.1107   10.3880   21.3769 N   0  0  0  0  0  0  0  0  0  0  0  0
    3.9102    9.2008   20.3124 C   0  0  0  0  0  0  0  0  0  0  0  0
   12.7292   10.9960   18.4597 C   0  0  0  0  0  0  0  0  0  0  0  0
    9.3798    6.6793   23.6625 C   0  0  0  0  0  0  0  0  0  0  0  0
   14.7425   10.0739   19.0802 O   0  0  0  0  0  0  0  0  0  0  0  0
    5.1894    9.4673   20.7118 C   0  0  0  0  0  0  0  0  0  0  0  0
    7.3773    8.8224   21.4870 C   0  0  0  0  0  0  0  0  0  0  0  0
    8.4391    6.6439   21.0235 C   0  0  0  0  0  0  0  0  0  0  0  0
    9.6494   11.1353   20.4167 C   0  0  0  0  0  0  0  0  0  0  0  0
    8.1431    7.6829   21.9046 C   0  0  0  0  0  0  0  0  0  0  0  0
    7.7796   10.1314   21.5115 N   0  0  0  0  0  0  0  0  0  0  0  0
    9.2768    5.6183   21.4437 C   0  0  0  0  0  0  0  0  0  0  0  0
    8.6315    7.7322   23.1768 C   0  0  0  0  0  0  0  0  0  0  0  0
   13.0537    9.9821   20.5781 C   0  0  0  0  0  0  0  0  0  0  0  0
   10.3850    4.6575   23.2386 O   0  0  0  0  0  0  0  0  0  0  0  0
    4.2069    6.8450   20.7994 C   0  0  0  0  0  0  0  0  0  0  0  0
    3.0726   10.1043   19.8522 O   0  0  0  0  0  0  0  0  0  0  0  0
    5.5057    7.1196   21.1155 C   0  0  0  0  0  0  0  0  0  0  0  0
    7.0367   11.0229   21.9948 O   0  0  0  0  0  0  0  0  0  0  0  0
  1  8  4  0
  1 12  4  0
  2  9  1  0
  2 11  4  0
  2 25  4  0
  3 12  4  0
  3 14  1  0
  3 23  4  0
  4 13  4  0
  4 21  4  0
  4 24  1  0
  5  8  4  0
  5 23  4  0
  6 18  2  0
  7 15  4  0
  7 16  1  0
  7 27  4  0
  8 18  1  0
 10 18  1  0
 10 20  1  0
 11 15  4  0
 11 26  1  0
 13 22  4  0
 16 19  1  0
 16 20  2  0
 17 19  4  0
 17 21  4  0
 19 22  4  0
 20 28  1  0
 25 27  4  0
M  END
$$$$

 Created by Python create_sdf_string function

 28 30  0  0  0  0  0  0  0  0999 V2000
   11.4592   11.2893   18.7941 C   0  0  0  0  0  0  0  0  0  0  0  0
    3.4202    7.9009   20.3866 C   0  0  0  0  0  0  0  0  0  0  0  0
   13.5280   10.3522   19.3586 C   0  0  0  0  0  0  0  0  0  0  0  0
    9.6923    5.6468   22.7891 C   0  0  0  0  0  0  0  0  0  0  0  0
   11.7756   10.2554   20.8841 N   0  0  0  0  0  0  0  0  0  0  0  0
    8.9876   11.9370   19.8757 O   0  0  0  0  0  0  0  0  0  0  0  0
    6.0167    8.4478   21.1089 C   0  0  0  0  0  0  0  0  0  0  0  0
   11.0002   10.8890   20.0262 C   0  0  0  0  0  0  0  0  0  0  0  0
    2.1721    7.7393   20.0315 O   0  0  0  0  0  0  0  0  0  0  0  0
    9.1107   10.3880   21.3769 N   0  0  0  0  0  0  0  0  0  0  0  0
    3.9102    9.2008   20.3124 C   0  0  0  0  0  0  0  0  0  0  0  0
   12.7292   10.9960   18.4597 C   0  0  0  0  0  0  0  0  0  0  0  0
    9.3798    6.6793   23.6625 C   0  0  0  0  0  0  0  0  0  0  0  0
   14.7425   10.0739   19.0802 O   0  0  0  0  0  0  0  0  0  0  0  0
    5.1894    9.4673   20.7118 C   0  0  0  0  0  0  0  0  0  0  0  0
    7.3773    8.8224   21.4870 C   0  0  0  0  0  0  0  0  0  0  0  0
    8.4391    6.6439   21.0235 C   0  0  0  0  0  0  0  0  0  0  0  0
    9.6494   11.1353   20.4167 C   0  0  0  0  0  0  0  0  0  0  0  0
    8.1431    7.6829   21.9046 C   0  0  0  0  0  0  0  0  0  0  0  0
    7.7796   10.1314   21.5115 N   0  0  0  0  0  0  0  0  0  0  0  0
    9.2768    5.6183   21.4437 C   0  0  0  0  0  0  0  0  0  0  0  0
    8.6315    7.7322   23.1768 C   0  0  0  0  0  0  0  0  0  0  0  0
   13.0537    9.9821   20.5781 C   0  0  0  0  0  0  0  0  0  0  0  0
   10.3850    4.6575   23.2386 O   0  0  0  0  0  0  0  0  0  0  0  0
    4.2069    6.8450   20.7994 C   0  0  0  0  0  0  0  0  0  0  0  0
    3.0726   10.1043   19.8522 O   0  0  0  0  0  0  0  0  0  0  0  0
    5.5057    7.1196   21.1155 C   0  0  0  0  0  0  0  0  0  0  0  0
    7.0367   11.0229   21.9948 O   0  0  0  0  0  0  0  0  0  0  0  0
  1  8  4  0
  1 12  4  0
  2  9  1  0
  2 11  4  0
  2 25  4  0
  3 12  4  0
  3 14  1  0
  3 23  4  0
  4 13  4  0
  4 21  4  0
  4 24  1  0
  5  8  4  0
  5 23  4  0
  6 18  2  0
  7 15  4  0
  7 16  1  0
  7 27  4  0
  8 18  1  0
 10 18  1  0
 10 20  1  0
 11 15  4  0
 11 26  1  0
 13 22  4  0
 16 19  1  0
 16 20  2  0
 17 19  4  0
 17 21  4  0
 19 22  4  0
 20 28  1  0
 25 27  4  0
M  END
$$$$

 Created by Python create_sdf_string function

 28 30  0  0  0  0  0  0  0  0999 V2000
   11.4592   11.2893   18.7941 C   0  0  0  0  0  0  0  0  0  0  0  0
    3.4202    7.9009   20.3866 C   0  0  0  0  0  0  0  0  0  0  0  0
   13.5280   10.3522   19.3586 C   0  0  0  0  0  0  0  0  0  0  0  0
    9.6923    5.6468   22.7891 C   0  0  0  0  0  0  0  0  0  0  0  0
   11.7756   10.2554   20.8841 N   0  0  0  0  0  0  0  0  0  0  0  0
    8.9876   11.9370   19.8757 O   0  0  0  0  0  0  0  0  0  0  0  0
    6.0167    8.4478   21.1089 C   0  0  0  0  0  0  0  0  0  0  0  0
   11.0002   10.8890   20.0262 C   0  0  0  0  0  0  0  0  0  0  0  0
    2.1721    7.7393   20.0315 O   0  0  0  0  0  0  0  0  0  0  0  0
    9.1107   10.3880   21.3769 N   0  0  0  0  0  0  0  0  0  0  0  0
    3.9102    9.2008   20.3124 C   0  0  0  0  0  0  0  0  0  0  0  0
   12.7292   10.9960   18.4597 C   0  0  0  0  0  0  0  0  0  0  0  0
    9.3798    6.6793   23.6625 C   0  0  0  0  0  0  0  0  0  0  0  0
   14.7425   10.0739   19.0802 O   0  0  0  0  0  0  0  0  0  0  0  0
    5.1894    9.4673   20.7118 C   0  0  0  0  0  0  0  0  0  0  0  0
    7.3773    8.8224   21.4870 C   0  0  0  0  0  0  0  0  0  0  0  0
    8.4391    6.6439   21.0235 C   0  0  0  0  0  0  0  0  0  0  0  0
    9.6494   11.1353   20.4167 C   0  0  0  0  0  0  0  0  0  0  0  0
    8.1431    7.6829   21.9046 C   0  0  0  0  0  0  0  0  0  0  0  0
    7.7796   10.1314   21.5115 N   0  0  0  0  0  0  0  0  0  0  0  0
    9.2768    5.6183   21.4437 C   0  0  0  0  0  0  0  0  0  0  0  0
    8.6315    7.7322   23.1768 C   0  0  0  0  0  0  0  0  0  0  0  0
   13.0537    9.9821   20.5781 C   0  0  0  0  0  0  0  0  0  0  0  0
   10.3850    4.6575   23.2386 O   0  0  0  0  0  0  0  0  0  0  0  0
    4.2069    6.8450   20.7994 C   0  0  0  0  0  0  0  0  0  0  0  0
    3.0726   10.1043   19.8522 O   0  0  0  0  0  0  0  0  0  0  0  0
    5.5057    7.1196   21.1155 C   0  0  0  0  0  0  0  0  0  0  0  0
    7.0367   11.0229   21.9948 O   0  0  0  0  0  0  0  0  0  0  0  0
  1  8  4  0
  1 12  4  0
  2  9  1  0
  2 11  4  0
  2 25  4  0
  3 12  4  0
  3 14  1  0
  3 23  4  0
  4 13  4  0
  4 21  4  0
  4 24  1  0
  5  8  4  0
  5 23  4  0
  6 18  2  0
  7 15  4  0
  7 16  1  0
  7 27  4  0
  8 18  1  0
 10 18  1  0
 10 20  1  0
 11 15  4  0
 11 26  1  0
 13 22  4  0
 16 19  1  0
 16 20  2  0
 17 19  4  0
 17 21  4  0
 19 22  4  0
 20 28  1  0
 25 27  4  0
M  END
$$$$

 Created by Python create_sdf_string function

 28 30  0  0  0  0  0  0  0  0999 V2000
   11.4592   11.2893   18.7941 C   0  0  0  0  0  0  0  0  0  0  0  0
    3.4202    7.9009   20.3866 C   0  0  0  0  0  0  0  0  0  0  0  0
   13.5280   10.3522   19.3586 C   0  0  0  0  0  0  0  0  0  0  0  0
    9.6923    5.6468   22.7891 C   0  0  0  0  0  0  0  0  0  0  0  0
   11.7756   10.2554   20.8841 N   0  0  0  0  0  0  0  0  0  0  0  0
    8.9876   11.9370   19.8757 O   0  0  0  0  0  0  0  0  0  0  0  0
    6.0167    8.4478   21.1089 C   0  0  0  0  0  0  0  0  0  0  0  0
   11.0002   10.8890   20.0262 C   0  0  0  0  0  0  0  0  0  0  0  0
    2.1721    7.7393   20.0315 O   0  0  0  0  0  0  0  0  0  0  0  0
    9.1107   10.3880   21.3769 N   0  0  0  0  0  0  0  0  0  0  0  0
    3.9102    9.2008   20.3124 C   0  0  0  0  0  0  0  0  0  0  0  0
   12.7292   10.9960   18.4597 C   0  0  0  0  0  0  0  0  0  0  0  0
    9.3798    6.6793   23.6625 C   0  0  0  0  0  0  0  0  0  0  0  0
   14.7425   10.0739   19.0802 O   0  0  0  0  0  0  0  0  0  0  0  0
    5.1894    9.4673   20.7118 C   0  0  0  0  0  0  0  0  0  0  0  0
    7.3773    8.8224   21.4870 C   0  0  0  0  0  0  0  0  0  0  0  0
    8.4391    6.6439   21.0235 C   0  0  0  0  0  0  0  0  0  0  0  0
    9.6494   11.1353   20.4167 C   0  0  0  0  0  0  0  0  0  0  0  0
    8.1431    7.6829   21.9046 C   0  0  0  0  0  0  0  0  0  0  0  0
    7.7796   10.1314   21.5115 N   0  0  0  0  0  0  0  0  0  0  0  0
    9.2768    5.6183   21.4437 C   0  0  0  0  0  0  0  0  0  0  0  0
    8.6315    7.7322   23.1768 C   0  0  0  0  0  0  0  0  0  0  0  0
   13.0537    9.9821   20.5781 C   0  0  0  0  0  0  0  0  0  0  0  0
   10.3850    4.6575   23.2386 O   0  0  0  0  0  0  0  0  0  0  0  0
    4.2069    6.8450   20.7994 C   0  0  0  0  0  0  0  0  0  0  0  0
    3.0726   10.1043   19.8522 O   0  0  0  0  0  0  0  0  0  0  0  0
    5.5057    7.1196   21.1155 C   0  0  0  0  0  0  0  0  0  0  0  0
    7.0367   11.0229   21.9948 O   0  0  0  0  0  0  0  0  0  0  0  0
  1  8  4  0
  1 12  4  0
  2  9  1  0
  2 11  4  0
  2 25  4  0
  3 12  4  0
  3 14  1  0
  3 23  4  0
  4 13  4  0
  4 21  4  0
  4 24  1  0
  5  8  4  0
  5 23  4  0
  6 18  2  0
  7 15  4  0
  7 16  1  0
  7 27  4  0
  8 18  1  0
 10 18  1  0
 10 20  1  0
 11 15  4  0
 11 26  1  0
 13 22  4  0
 16 19  1  0
 16 20  2  0
 17 19  4  0
 17 21  4  0
 19 22  4  0
 20 28  1  0
 25 27  4  0
M  END
$$$$

 Created by Python create_sdf_string function

 28 30  0  0  0  0  0  0  0  0999 V2000
   11.4592   11.2893   18.7941 C   0  0  0  0  0  0  0  0  0  0  0  0
    3.4202    7.9009   20.3866 C   0  0  0  0  0  0  0  0  0  0  0  0
   13.5280   10.3522   19.3586 C   0  0  0  0  0  0  0  0  0  0  0  0
    9.6923    5.6468   22.7891 C   0  0  0  0  0  0  0  0  0  0  0  0
   11.7756   10.2554   20.8841 N   0  0  0  0  0  0  0  0  0  0  0  0
    8.9876   11.9370   19.8757 O   0  0  0  0  0  0  0  0  0  0  0  0
    6.0167    8.4478   21.1089 C   0  0  0  0  0  0  0  0  0  0  0  0
   11.0002   10.8890   20.0262 C   0  0  0  0  0  0  0  0  0  0  0  0
    2.1721    7.7393   20.0315 O   0  0  0  0  0  0  0  0  0  0  0  0
    9.1107   10.3880   21.3769 N   0  0  0  0  0  0  0  0  0  0  0  0
    3.9102    9.2008   20.3124 C   0  0  0  0  0  0  0  0  0  0  0  0
   12.7292   10.9960   18.4597 C   0  0  0  0  0  0  0  0  0  0  0  0
    9.3798    6.6793   23.6625 C   0  0  0  0  0  0  0  0  0  0  0  0
   14.7425   10.0739   19.0802 O   0  0  0  0  0  0  0  0  0  0  0  0
    5.1894    9.4673   20.7118 C   0  0  0  0  0  0  0  0  0  0  0  0
    7.3773    8.8224   21.4870 C   0  0  0  0  0  0  0  0  0  0  0  0
    8.4391    6.6439   21.0235 C   0  0  0  0  0  0  0  0  0  0  0  0
    9.6494   11.1353   20.4167 C   0  0  0  0  0  0  0  0  0  0  0  0
    8.1431    7.6829   21.9046 C   0  0  0  0  0  0  0  0  0  0  0  0
    7.7796   10.1314   21.5115 N   0  0  0  0  0  0  0  0  0  0  0  0
    9.2768    5.6183   21.4437 C   0  0  0  0  0  0  0  0  0  0  0  0
    8.6315    7.7322   23.1768 C   0  0  0  0  0  0  0  0  0  0  0  0
   13.0537    9.9821   20.5781 C   0  0  0  0  0  0  0  0  0  0  0  0
   10.3850    4.6575   23.2386 O   0  0  0  0  0  0  0  0  0  0  0  0
    4.2069    6.8450   20.7994 C   0  0  0  0  0  0  0  0  0  0  0  0
    3.0726   10.1043   19.8522 O   0  0  0  0  0  0  0  0  0  0  0  0
    5.5057    7.1196   21.1155 C   0  0  0  0  0  0  0  0  0  0  0  0
    7.0367   11.0229   21.9948 O   0  0  0  0  0  0  0  0  0  0  0  0
  1  8  4  0
  1 12  4  0
  2  9  1  0
  2 11  4  0
  2 25  4  0
  3 12  4  0
  3 14  1  0
  3 23  4  0
  4 13  4  0
  4 21  4  0
  4 24  1  0
  5  8  4  0
  5 23  4  0
  6 18  2  0
  7 15  4  0
  7 16  1  0
  7 27  4  0
  8 18  1  0
 10 18  1  0
 10 20  1  0
 11 15  4  0
 11 26  1  0
 13 22  4  0
 16 19  1  0
 16 20  2  0
 17 19  4  0
 17 21  4  0
 19 22  4  0
 20 28  1  0
 25 27  4  0
M  END
$$$$

 Created by Python create_sdf_string function

 28 30  0  0  0  0  0  0  0  0999 V2000
   11.4592   11.2893   18.7941 C   0  0  0  0  0  0  0  0  0  0  0  0
    3.4202    7.9009   20.3866 C   0  0  0  0  0  0  0  0  0  0  0  0
   13.5280   10.3522   19.3586 C   0  0  0  0  0  0  0  0  0  0  0  0
    9.6923    5.6468   22.7891 C   0  0  0  0  0  0  0  0  0  0  0  0
   11.7756   10.2554   20.8841 N   0  0  0  0  0  0  0  0  0  0  0  0
    8.9876   11.9370   19.8757 O   0  0  0  0  0  0  0  0  0  0  0  0
    6.0167    8.4478   21.1089 C   0  0  0  0  0  0  0  0  0  0  0  0
   11.0002   10.8890   20.0262 C   0  0  0  0  0  0  0  0  0  0  0  0
    2.1721    7.7393   20.0315 O   0  0  0  0  0  0  0  0  0  0  0  0
    9.1107   10.3880   21.3769 N   0  0  0  0  0  0  0  0  0  0  0  0
    3.9102    9.2008   20.3124 C   0  0  0  0  0  0  0  0  0  0  0  0
   12.7292   10.9960   18.4597 C   0  0  0  0  0  0  0  0  0  0  0  0
    9.3798    6.6793   23.6625 C   0  0  0  0  0  0  0  0  0  0  0  0
   14.7425   10.0739   19.0802 O   0  0  0  0  0  0  0  0  0  0  0  0
    5.1894    9.4673   20.7118 C   0  0  0  0  0  0  0  0  0  0  0  0
    7.3773    8.8224   21.4870 C   0  0  0  0  0  0  0  0  0  0  0  0
    8.4391    6.6439   21.0235 C   0  0  0  0  0  0  0  0  0  0  0  0
    9.6494   11.1353   20.4167 C   0  0  0  0  0  0  0  0  0  0  0  0
    8.1431    7.6829   21.9046 C   0  0  0  0  0  0  0  0  0  0  0  0
    7.7796   10.1314   21.5115 N   0  0  0  0  0  0  0  0  0  0  0  0
    9.2768    5.6183   21.4437 C   0  0  0  0  0  0  0  0  0  0  0  0
    8.6315    7.7322   23.1768 C   0  0  0  0  0  0  0  0  0  0  0  0
   13.0537    9.9821   20.5781 C   0  0  0  0  0  0  0  0  0  0  0  0
   10.3850    4.6575   23.2386 O   0  0  0  0  0  0  0  0  0  0  0  0
    4.2069    6.8450   20.7994 C   0  0  0  0  0  0  0  0  0  0  0  0
    3.0726   10.1043   19.8522 O   0  0  0  0  0  0  0  0  0  0  0  0
    5.5057    7.1196   21.1155 C   0  0  0  0  0  0  0  0  0  0  0  0
    7.0367   11.0229   21.9948 O   0  0  0  0  0  0  0  0  0  0  0  0
  1  8  4  0
  1 12  4  0
  2  9  1  0
  2 11  4  0
  2 25  4  0
  3 12  4  0
  3 14  1  0
  3 23  4  0
  4 13  4  0
  4 21  4  0
  4 24  1  0
  5  8  4  0
  5 23  4  0
  6 18  2  0
  7 15  4  0
  7 16  1  0
  7 27  4  0
  8 18  1  0
 10 18  1  0
 10 20  1  0
 11 15  4  0
 11 26  1  0
 13 22  4  0
 16 19  1  0
 16 20  2  0
 17 19  4  0
 17 21  4  0
 19 22  4  0
 20 28  1  0
 25 27  4  0
M  END
$$$$

 Created by Python create_sdf_string function

 28 30  0  0  0  0  0  0  0  0999 V2000
   11.4592   11.2893   18.7941 C   0  0  0  0  0  0  0  0  0  0  0  0
    3.4202    7.9009   20.3866 C   0  0  0  0  0  0  0  0  0  0  0  0
   13.5280   10.3522   19.3586 C   0  0  0  0  0  0  0  0  0  0  0  0
    9.6923    5.6468   22.7891 C   0  0  0  0  0  0  0  0  0  0  0  0
   11.7756   10.2554   20.8841 N   0  0  0  0  0  0  0  0  0  0  0  0
    8.9876   11.9370   19.8757 O   0  0  0  0  0  0  0  0  0  0  0  0
    6.0167    8.4478   21.1089 C   0  0  0  0  0  0  0  0  0  0  0  0
   11.0002   10.8890   20.0262 C   0  0  0  0  0  0  0  0  0  0  0  0
    2.1721    7.7393   20.0315 O   0  0  0  0  0  0  0  0  0  0  0  0
    9.1107   10.3880   21.3769 N   0  0  0  0  0  0  0  0  0  0  0  0
    3.9102    9.2008   20.3124 C   0  0  0  0  0  0  0  0  0  0  0  0
   12.7292   10.9960   18.4597 C   0  0  0  0  0  0  0  0  0  0  0  0
    9.3798    6.6793   23.6625 C   0  0  0  0  0  0  0  0  0  0  0  0
   14.7425   10.0739   19.0802 O   0  0  0  0  0  0  0  0  0  0  0  0
    5.1894    9.4673   20.7118 C   0  0  0  0  0  0  0  0  0  0  0  0
    7.3773    8.8224   21.4870 C   0  0  0  0  0  0  0  0  0  0  0  0
    8.4391    6.6439   21.0235 C   0  0  0  0  0  0  0  0  0  0  0  0
    9.6494   11.1353   20.4167 C   0  0  0  0  0  0  0  0  0  0  0  0
    8.1431    7.6829   21.9046 C   0  0  0  0  0  0  0  0  0  0  0  0
    7.7796   10.1314   21.5115 N   0  0  0  0  0  0  0  0  0  0  0  0
    9.2768    5.6183   21.4437 C   0  0  0  0  0  0  0  0  0  0  0  0
    8.6315    7.7322   23.1768 C   0  0  0  0  0  0  0  0  0  0  0  0
   13.0537    9.9821   20.5781 C   0  0  0  0  0  0  0  0  0  0  0  0
   10.3850    4.6575   23.2386 O   0  0  0  0  0  0  0  0  0  0  0  0
    4.2069    6.8450   20.7994 C   0  0  0  0  0  0  0  0  0  0  0  0
    3.0726   10.1043   19.8522 O   0  0  0  0  0  0  0  0  0  0  0  0
    5.5057    7.1196   21.1155 C   0  0  0  0  0  0  0  0  0  0  0  0
    7.0367   11.0229   21.9948 O   0  0  0  0  0  0  0  0  0  0  0  0
  1  8  4  0
  1 12  4  0
  2  9  1  0
  2 11  4  0
  2 25  4  0
  3 12  4  0
  3 14  1  0
  3 23  4  0
  4 13  4  0
  4 21  4  0
  4 24  1  0
  5  8  4  0
  5 23  4  0
  6 18  2  0
  7 15  4  0
  7 16  1  0
  7 27  4  0
  8 18  1  0
 10 18  1  0
 10 20  1  0
 11 15  4  0
 11 26  1  0
 13 22  4  0
 16 19  1  0
 16 20  2  0
 17 19  4  0
 17 21  4  0
 19 22  4  0
 20 28  1  0
 25 27  4  0
M  END
$$$$

 Created by Python create_sdf_string function

 28 30  0  0  0  0  0  0  0  0999 V2000
   11.4592   11.2893   18.7941 C   0  0  0  0  0  0  0  0  0  0  0  0
    3.4202    7.9009   20.3866 C   0  0  0  0  0  0  0  0  0  0  0  0
   13.5280   10.3522   19.3586 C   0  0  0  0  0  0  0  0  0  0  0  0
    9.6923    5.6468   22.7891 C   0  0  0  0  0  0  0  0  0  0  0  0
   11.7756   10.2554   20.8841 N   0  0  0  0  0  0  0  0  0  0  0  0
    8.9876   11.9370   19.8757 O   0  0  0  0  0  0  0  0  0  0  0  0
    6.0167    8.4478   21.1089 C   0  0  0  0  0  0  0  0  0  0  0  0
   11.0002   10.8890   20.0262 C   0  0  0  0  0  0  0  0  0  0  0  0
    2.1721    7.7393   20.0315 O   0  0  0  0  0  0  0  0  0  0  0  0
    9.1107   10.3880   21.3769 N   0  0  0  0  0  0  0  0  0  0  0  0
    3.9102    9.2008   20.3124 C   0  0  0  0  0  0  0  0  0  0  0  0
   12.7292   10.9960   18.4597 C   0  0  0  0  0  0  0  0  0  0  0  0
    9.3798    6.6793   23.6625 C   0  0  0  0  0  0  0  0  0  0  0  0
   14.7425   10.0739   19.0802 O   0  0  0  0  0  0  0  0  0  0  0  0
    5.1894    9.4673   20.7118 C   0  0  0  0  0  0  0  0  0  0  0  0
    7.3773    8.8224   21.4870 C   0  0  0  0  0  0  0  0  0  0  0  0
    8.4391    6.6439   21.0235 C   0  0  0  0  0  0  0  0  0  0  0  0
    9.6494   11.1353   20.4167 C   0  0  0  0  0  0  0  0  0  0  0  0
    8.1431    7.6829   21.9046 C   0  0  0  0  0  0  0  0  0  0  0  0
    7.7796   10.1314   21.5115 N   0  0  0  0  0  0  0  0  0  0  0  0
    9.2768    5.6183   21.4437 C   0  0  0  0  0  0  0  0  0  0  0  0
    8.6315    7.7322   23.1768 C   0  0  0  0  0  0  0  0  0  0  0  0
   13.0537    9.9821   20.5781 C   0  0  0  0  0  0  0  0  0  0  0  0
   10.3850    4.6575   23.2386 O   0  0  0  0  0  0  0  0  0  0  0  0
    4.2069    6.8450   20.7994 C   0  0  0  0  0  0  0  0  0  0  0  0
    3.0726   10.1043   19.8522 O   0  0  0  0  0  0  0  0  0  0  0  0
    5.5057    7.1196   21.1155 C   0  0  0  0  0  0  0  0  0  0  0  0
    7.0367   11.0229   21.9948 O   0  0  0  0  0  0  0  0  0  0  0  0
  1  8  4  0
  1 12  4  0
  2  9  1  0
  2 11  4  0
  2 25  4  0
  3 12  4  0
  3 14  1  0
  3 23  4  0
  4 13  4  0
  4 21  4  0
  4 24  1  0
  5  8  4  0
  5 23  4  0
  6 18  2  0
  7 15  4  0
  7 16  1  0
  7 27  4  0
  8 18  1  0
 10 18  1  0
 10 20  1  0
 11 15  4  0
 11 26  1  0
 13 22  4  0
 16 19  1  0
 16 20  2  0
 17 19  4  0
 17 21  4  0
 19 22  4  0
 20 28  1  0
 25 27  4  0
M  END
$$$$

 Created by Python create_sdf_string function

 28 30  0  0  0  0  0  0  0  0999 V2000
   11.4592   11.2893   18.7941 C   0  0  0  0  0  0  0  0  0  0  0  0
    3.4202    7.9009   20.3866 C   0  0  0  0  0  0  0  0  0  0  0  0
   13.5280   10.3522   19.3586 C   0  0  0  0  0  0  0  0  0  0  0  0
    9.6923    5.6468   22.7891 C   0  0  0  0  0  0  0  0  0  0  0  0
   11.7756   10.2554   20.8841 N   0  0  0  0  0  0  0  0  0  0  0  0
    8.9876   11.9370   19.8757 O   0  0  0  0  0  0  0  0  0  0  0  0
    6.0167    8.4478   21.1089 C   0  0  0  0  0  0  0  0  0  0  0  0
   11.0002   10.8890   20.0262 C   0  0  0  0  0  0  0  0  0  0  0  0
    2.1721    7.7393   20.0315 O   0  0  0  0  0  0  0  0  0  0  0  0
    9.1107   10.3880   21.3769 N   0  0  0  0  0  0  0  0  0  0  0  0
    3.9102    9.2008   20.3124 C   0  0  0  0  0  0  0  0  0  0  0  0
   12.7292   10.9960   18.4597 C   0  0  0  0  0  0  0  0  0  0  0  0
    9.3798    6.6793   23.6625 C   0  0  0  0  0  0  0  0  0  0  0  0
   14.7425   10.0739   19.0802 O   0  0  0  0  0  0  0  0  0  0  0  0
    5.1894    9.4673   20.7118 C   0  0  0  0  0  0  0  0  0  0  0  0
    7.3773    8.8224   21.4870 C   0  0  0  0  0  0  0  0  0  0  0  0
    8.4391    6.6439   21.0235 C   0  0  0  0  0  0  0  0  0  0  0  0
    9.6494   11.1353   20.4167 C   0  0  0  0  0  0  0  0  0  0  0  0
    8.1431    7.6829   21.9046 C   0  0  0  0  0  0  0  0  0  0  0  0
    7.7796   10.1314   21.5115 N   0  0  0  0  0  0  0  0  0  0  0  0
    9.2768    5.6183   21.4437 C   0  0  0  0  0  0  0  0  0  0  0  0
    8.6315    7.7322   23.1768 C   0  0  0  0  0  0  0  0  0  0  0  0
   13.0537    9.9821   20.5781 C   0  0  0  0  0  0  0  0  0  0  0  0
   10.3850    4.6575   23.2386 O   0  0  0  0  0  0  0  0  0  0  0  0
    4.2069    6.8450   20.7994 C   0  0  0  0  0  0  0  0  0  0  0  0
    3.0726   10.1043   19.8522 O   0  0  0  0  0  0  0  0  0  0  0  0
    5.5057    7.1196   21.1155 C   0  0  0  0  0  0  0  0  0  0  0  0
    7.0367   11.0229   21.9948 O   0  0  0  0  0  0  0  0  0  0  0  0
  1  8  4  0
  1 12  4  0
  2  9  1  0
  2 11  4  0
  2 25  4  0
  3 12  4  0
  3 14  1  0
  3 23  4  0
  4 13  4  0
  4 21  4  0
  4 24  1  0
  5  8  4  0
  5 23  4  0
  6 18  2  0
  7 15  4  0
  7 16  1  0
  7 27  4  0
  8 18  1  0
 10 18  1  0
 10 20  1  0
 11 15  4  0
 11 26  1  0
 13 22  4  0
 16 19  1  0
 16 20  2  0
 17 19  4  0
 17 21  4  0
 19 22  4  0
 20 28  1  0
 25 27  4  0
M  END
$$$$

 Created by Python create_sdf_string function

 28 30  0  0  0  0  0  0  0  0999 V2000
   11.4592   11.2893   18.7941 C   0  0  0  0  0  0  0  0  0  0  0  0
    3.4202    7.9009   20.3866 C   0  0  0  0  0  0  0  0  0  0  0  0
   13.5280   10.3522   19.3586 C   0  0  0  0  0  0  0  0  0  0  0  0
    9.6923    5.6468   22.7891 C   0  0  0  0  0  0  0  0  0  0  0  0
   11.7756   10.2554   20.8841 N   0  0  0  0  0  0  0  0  0  0  0  0
    8.9876   11.9370   19.8757 O   0  0  0  0  0  0  0  0  0  0  0  0
    6.0167    8.4478   21.1089 C   0  0  0  0  0  0  0  0  0  0  0  0
   11.0002   10.8890   20.0262 C   0  0  0  0  0  0  0  0  0  0  0  0
    2.1721    7.7393   20.0315 O   0  0  0  0  0  0  0  0  0  0  0  0
    9.1107   10.3880   21.3769 N   0  0  0  0  0  0  0  0  0  0  0  0
    3.9102    9.2008   20.3124 C   0  0  0  0  0  0  0  0  0  0  0  0
   12.7292   10.9960   18.4597 C   0  0  0  0  0  0  0  0  0  0  0  0
    9.3798    6.6793   23.6625 C   0  0  0  0  0  0  0  0  0  0  0  0
   14.7425   10.0739   19.0802 O   0  0  0  0  0  0  0  0  0  0  0  0
    5.1894    9.4673   20.7118 C   0  0  0  0  0  0  0  0  0  0  0  0
    7.3773    8.8224   21.4870 C   0  0  0  0  0  0  0  0  0  0  0  0
    8.4391    6.6439   21.0235 C   0  0  0  0  0  0  0  0  0  0  0  0
    9.6494   11.1353   20.4167 C   0  0  0  0  0  0  0  0  0  0  0  0
    8.1431    7.6829   21.9046 C   0  0  0  0  0  0  0  0  0  0  0  0
    7.7796   10.1314   21.5115 N   0  0  0  0  0  0  0  0  0  0  0  0
    9.2768    5.6183   21.4437 C   0  0  0  0  0  0  0  0  0  0  0  0
    8.6315    7.7322   23.1768 C   0  0  0  0  0  0  0  0  0  0  0  0
   13.0537    9.9821   20.5781 C   0  0  0  0  0  0  0  0  0  0  0  0
   10.3850    4.6575   23.2386 O   0  0  0  0  0  0  0  0  0  0  0  0
    4.2069    6.8450   20.7994 C   0  0  0  0  0  0  0  0  0  0  0  0
    3.0726   10.1043   19.8522 O   0  0  0  0  0  0  0  0  0  0  0  0
    5.5057    7.1196   21.1155 C   0  0  0  0  0  0  0  0  0  0  0  0
    7.0367   11.0229   21.9948 O   0  0  0  0  0  0  0  0  0  0  0  0
  1  8  4  0
  1 12  4  0
  2  9  1  0
  2 11  4  0
  2 25  4  0
  3 12  4  0
  3 14  1  0
  3 23  4  0
  4 13  4  0
  4 21  4  0
  4 24  1  0
  5  8  4  0
  5 23  4  0
  6 18  2  0
  7 15  4  0
  7 16  1  0
  7 27  4  0
  8 18  1  0
 10 18  1  0
 10 20  1  0
 11 15  4  0
 11 26  1  0
 13 22  4  0
 16 19  1  0
 16 20  2  0
 17 19  4  0
 17 21  4  0
 19 22  4  0
 20 28  1  0
 25 27  4  0
M  END
$$$$

 Created by Python create_sdf_string function

 28 30  0  0  0  0  0  0  0  0999 V2000
   11.4592   11.2893   18.7941 C   0  0  0  0  0  0  0  0  0  0  0  0
    3.4202    7.9009   20.3866 C   0  0  0  0  0  0  0  0  0  0  0  0
   13.5280   10.3522   19.3586 C   0  0  0  0  0  0  0  0  0  0  0  0
    9.6923    5.6468   22.7891 C   0  0  0  0  0  0  0  0  0  0  0  0
   11.7756   10.2554   20.8841 N   0  0  0  0  0  0  0  0  0  0  0  0
    8.9876   11.9370   19.8757 O   0  0  0  0  0  0  0  0  0  0  0  0
    6.0167    8.4478   21.1089 C   0  0  0  0  0  0  0  0  0  0  0  0
   11.0002   10.8890   20.0262 C   0  0  0  0  0  0  0  0  0  0  0  0
    2.1721    7.7393   20.0315 O   0  0  0  0  0  0  0  0  0  0  0  0
    9.1107   10.3880   21.3769 N   0  0  0  0  0  0  0  0  0  0  0  0
    3.9102    9.2008   20.3124 C   0  0  0  0  0  0  0  0  0  0  0  0
   12.7292   10.9960   18.4597 C   0  0  0  0  0  0  0  0  0  0  0  0
    9.3798    6.6793   23.6625 C   0  0  0  0  0  0  0  0  0  0  0  0
   14.7425   10.0739   19.0802 O   0  0  0  0  0  0  0  0  0  0  0  0
    5.1894    9.4673   20.7118 C   0  0  0  0  0  0  0  0  0  0  0  0
    7.3773    8.8224   21.4870 C   0  0  0  0  0  0  0  0  0  0  0  0
    8.4391    6.6439   21.0235 C   0  0  0  0  0  0  0  0  0  0  0  0
    9.6494   11.1353   20.4167 C   0  0  0  0  0  0  0  0  0  0  0  0
    8.1431    7.6829   21.9046 C   0  0  0  0  0  0  0  0  0  0  0  0
    7.7796   10.1314   21.5115 N   0  0  0  0  0  0  0  0  0  0  0  0
    9.2768    5.6183   21.4437 C   0  0  0  0  0  0  0  0  0  0  0  0
    8.6315    7.7322   23.1768 C   0  0  0  0  0  0  0  0  0  0  0  0
   13.0537    9.9821   20.5781 C   0  0  0  0  0  0  0  0  0  0  0  0
   10.3850    4.6575   23.2386 O   0  0  0  0  0  0  0  0  0  0  0  0
    4.2069    6.8450   20.7994 C   0  0  0  0  0  0  0  0  0  0  0  0
    3.0726   10.1043   19.8522 O   0  0  0  0  0  0  0  0  0  0  0  0
    5.5057    7.1196   21.1155 C   0  0  0  0  0  0  0  0  0  0  0  0
    7.0367   11.0229   21.9948 O   0  0  0  0  0  0  0  0  0  0  0  0
  1  8  4  0
  1 12  4  0
  2  9  1  0
  2 11  4  0
  2 25  4  0
  3 12  4  0
  3 14  1  0
  3 23  4  0
  4 13  4  0
  4 21  4  0
  4 24  1  0
  5  8  4  0
  5 23  4  0
  6 18  2  0
  7 15  4  0
  7 16  1  0
  7 27  4  0
  8 18  1  0
 10 18  1  0
 10 20  1  0
 11 15  4  0
 11 26  1  0
 13 22  4  0
 16 19  1  0
 16 20  2  0
 17 19  4  0
 17 21  4  0
 19 22  4  0
 20 28  1  0
 25 27  4  0
M  END
$$$$

 Created by Python create_sdf_string function

 28 30  0  0  0  0  0  0  0  0999 V2000
   11.4592   11.2893   18.7941 C   0  0  0  0  0  0  0  0  0  0  0  0
    3.4202    7.9009   20.3866 C   0  0  0  0  0  0  0  0  0  0  0  0
   13.5280   10.3522   19.3586 C   0  0  0  0  0  0  0  0  0  0  0  0
    9.6923    5.6468   22.7891 C   0  0  0  0  0  0  0  0  0  0  0  0
   11.7756   10.2554   20.8841 N   0  0  0  0  0  0  0  0  0  0  0  0
    8.9876   11.9370   19.8757 O   0  0  0  0  0  0  0  0  0  0  0  0
    6.0167    8.4478   21.1089 C   0  0  0  0  0  0  0  0  0  0  0  0
   11.0002   10.8890   20.0262 C   0  0  0  0  0  0  0  0  0  0  0  0
    2.1721    7.7393   20.0315 O   0  0  0  0  0  0  0  0  0  0  0  0
    9.1107   10.3880   21.3769 N   0  0  0  0  0  0  0  0  0  0  0  0
    3.9102    9.2008   20.3124 C   0  0  0  0  0  0  0  0  0  0  0  0
   12.7292   10.9960   18.4597 C   0  0  0  0  0  0  0  0  0  0  0  0
    9.3798    6.6793   23.6625 C   0  0  0  0  0  0  0  0  0  0  0  0
   14.7425   10.0739   19.0802 O   0  0  0  0  0  0  0  0  0  0  0  0
    5.1894    9.4673   20.7118 C   0  0  0  0  0  0  0  0  0  0  0  0
    7.3773    8.8224   21.4870 C   0  0  0  0  0  0  0  0  0  0  0  0
    8.4391    6.6439   21.0235 C   0  0  0  0  0  0  0  0  0  0  0  0
    9.6494   11.1353   20.4167 C   0  0  0  0  0  0  0  0  0  0  0  0
    8.1431    7.6829   21.9046 C   0  0  0  0  0  0  0  0  0  0  0  0
    7.7796   10.1314   21.5115 N   0  0  0  0  0  0  0  0  0  0  0  0
    9.2768    5.6183   21.4437 C   0  0  0  0  0  0  0  0  0  0  0  0
    8.6315    7.7322   23.1768 C   0  0  0  0  0  0  0  0  0  0  0  0
   13.0537    9.9821   20.5781 C   0  0  0  0  0  0  0  0  0  0  0  0
   10.3850    4.6575   23.2386 O   0  0  0  0  0  0  0  0  0  0  0  0
    4.2069    6.8450   20.7994 C   0  0  0  0  0  0  0  0  0  0  0  0
    3.0726   10.1043   19.8522 O   0  0  0  0  0  0  0  0  0  0  0  0
    5.5057    7.1196   21.1155 C   0  0  0  0  0  0  0  0  0  0  0  0
    7.0367   11.0229   21.9948 O   0  0  0  0  0  0  0  0  0  0  0  0
  1  8  4  0
  1 12  4  0
  2  9  1  0
  2 11  4  0
  2 25  4  0
  3 12  4  0
  3 14  1  0
  3 23  4  0
  4 13  4  0
  4 21  4  0
  4 24  1  0
  5  8  4  0
  5 23  4  0
  6 18  2  0
  7 15  4  0
  7 16  1  0
  7 27  4  0
  8 18  1  0
 10 18  1  0
 10 20  1  0
 11 15  4  0
 11 26  1  0
 13 22  4  0
 16 19  1  0
 16 20  2  0
 17 19  4  0
 17 21  4  0
 19 22  4  0
 20 28  1  0
 25 27  4  0
M  END
$$$$

 Created by Python create_sdf_string function

 28 30  0  0  0  0  0  0  0  0999 V2000
   11.4592   11.2893   18.7941 C   0  0  0  0  0  0  0  0  0  0  0  0
    3.4202    7.9009   20.3866 C   0  0  0  0  0  0  0  0  0  0  0  0
   13.5280   10.3522   19.3586 C   0  0  0  0  0  0  0  0  0  0  0  0
    9.6923    5.6468   22.7891 C   0  0  0  0  0  0  0  0  0  0  0  0
   11.7756   10.2554   20.8841 N   0  0  0  0  0  0  0  0  0  0  0  0
    8.9876   11.9370   19.8757 O   0  0  0  0  0  0  0  0  0  0  0  0
    6.0167    8.4478   21.1089 C   0  0  0  0  0  0  0  0  0  0  0  0
   11.0002   10.8890   20.0262 C   0  0  0  0  0  0  0  0  0  0  0  0
    2.1721    7.7393   20.0315 O   0  0  0  0  0  0  0  0  0  0  0  0
    9.1107   10.3880   21.3769 N   0  0  0  0  0  0  0  0  0  0  0  0
    3.9102    9.2008   20.3124 C   0  0  0  0  0  0  0  0  0  0  0  0
   12.7292   10.9960   18.4597 C   0  0  0  0  0  0  0  0  0  0  0  0
    9.3798    6.6793   23.6625 C   0  0  0  0  0  0  0  0  0  0  0  0
   14.7425   10.0739   19.0802 O   0  0  0  0  0  0  0  0  0  0  0  0
    5.1894    9.4673   20.7118 C   0  0  0  0  0  0  0  0  0  0  0  0
    7.3773    8.8224   21.4870 C   0  0  0  0  0  0  0  0  0  0  0  0
    8.4391    6.6439   21.0235 C   0  0  0  0  0  0  0  0  0  0  0  0
    9.6494   11.1353   20.4167 C   0  0  0  0  0  0  0  0  0  0  0  0
    8.1431    7.6829   21.9046 C   0  0  0  0  0  0  0  0  0  0  0  0
    7.7796   10.1314   21.5115 N   0  0  0  0  0  0  0  0  0  0  0  0
    9.2768    5.6183   21.4437 C   0  0  0  0  0  0  0  0  0  0  0  0
    8.6315    7.7322   23.1768 C   0  0  0  0  0  0  0  0  0  0  0  0
   13.0537    9.9821   20.5781 C   0  0  0  0  0  0  0  0  0  0  0  0
   10.3850    4.6575   23.2386 O   0  0  0  0  0  0  0  0  0  0  0  0
    4.2069    6.8450   20.7994 C   0  0  0  0  0  0  0  0  0  0  0  0
    3.0726   10.1043   19.8522 O   0  0  0  0  0  0  0  0  0  0  0  0
    5.5057    7.1196   21.1155 C   0  0  0  0  0  0  0  0  0  0  0  0
    7.0367   11.0229   21.9948 O   0  0  0  0  0  0  0  0  0  0  0  0
  1  8  4  0
  1 12  4  0
  2  9  1  0
  2 11  4  0
  2 25  4  0
  3 12  4  0
  3 14  1  0
  3 23  4  0
  4 13  4  0
  4 21  4  0
  4 24  1  0
  5  8  4  0
  5 23  4  0
  6 18  2  0
  7 15  4  0
  7 16  1  0
  7 27  4  0
  8 18  1  0
 10 18  1  0
 10 20  1  0
 11 15  4  0
 11 26  1  0
 13 22  4  0
 16 19  1  0
 16 20  2  0
 17 19  4  0
 17 21  4  0
 19 22  4  0
 20 28  1  0
 25 27  4  0
M  END
$$$$

 Created by Python create_sdf_string function

 28 30  0  0  0  0  0  0  0  0999 V2000
   11.4592   11.2893   18.7941 C   0  0  0  0  0  0  0  0  0  0  0  0
    3.4202    7.9009   20.3866 C   0  0  0  0  0  0  0  0  0  0  0  0
   13.5280   10.3522   19.3586 C   0  0  0  0  0  0  0  0  0  0  0  0
    9.6923    5.6468   22.7891 C   0  0  0  0  0  0  0  0  0  0  0  0
   11.7756   10.2554   20.8841 N   0  0  0  0  0  0  0  0  0  0  0  0
    8.9876   11.9370   19.8757 O   0  0  0  0  0  0  0  0  0  0  0  0
    6.0167    8.4478   21.1089 C   0  0  0  0  0  0  0  0  0  0  0  0
   11.0002   10.8890   20.0262 C   0  0  0  0  0  0  0  0  0  0  0  0
    2.1721    7.7393   20.0315 O   0  0  0  0  0  0  0  0  0  0  0  0
    9.1107   10.3880   21.3769 N   0  0  0  0  0  0  0  0  0  0  0  0
    3.9102    9.2008   20.3124 C   0  0  0  0  0  0  0  0  0  0  0  0
   12.7292   10.9960   18.4597 C   0  0  0  0  0  0  0  0  0  0  0  0
    9.3798    6.6793   23.6625 C   0  0  0  0  0  0  0  0  0  0  0  0
   14.7425   10.0739   19.0802 O   0  0  0  0  0  0  0  0  0  0  0  0
    5.1894    9.4673   20.7118 C   0  0  0  0  0  0  0  0  0  0  0  0
    7.3773    8.8224   21.4870 C   0  0  0  0  0  0  0  0  0  0  0  0
    8.4391    6.6439   21.0235 C   0  0  0  0  0  0  0  0  0  0  0  0
    9.6494   11.1353   20.4167 C   0  0  0  0  0  0  0  0  0  0  0  0
    8.1431    7.6829   21.9046 C   0  0  0  0  0  0  0  0  0  0  0  0
    7.7796   10.1314   21.5115 N   0  0  0  0  0  0  0  0  0  0  0  0
    9.2768    5.6183   21.4437 C   0  0  0  0  0  0  0  0  0  0  0  0
    8.6315    7.7322   23.1768 C   0  0  0  0  0  0  0  0  0  0  0  0
   13.0537    9.9821   20.5781 C   0  0  0  0  0  0  0  0  0  0  0  0
   10.3850    4.6575   23.2386 O   0  0  0  0  0  0  0  0  0  0  0  0
    4.2069    6.8450   20.7994 C   0  0  0  0  0  0  0  0  0  0  0  0
    3.0726   10.1043   19.8522 O   0  0  0  0  0  0  0  0  0  0  0  0
    5.5057    7.1196   21.1155 C   0  0  0  0  0  0  0  0  0  0  0  0
    7.0367   11.0229   21.9948 O   0  0  0  0  0  0  0  0  0  0  0  0
  1  8  4  0
  1 12  4  0
  2  9  1  0
  2 11  4  0
  2 25  4  0
  3 12  4  0
  3 14  1  0
  3 23  4  0
  4 13  4  0
  4 21  4  0
  4 24  1  0
  5  8  4  0
  5 23  4  0
  6 18  2  0
  7 15  4  0
  7 16  1  0
  7 27  4  0
  8 18  1  0
 10 18  1  0
 10 20  1  0
 11 15  4  0
 11 26  1  0
 13 22  4  0
 16 19  1  0
 16 20  2  0
 17 19  4  0
 17 21  4  0
 19 22  4  0
 20 28  1  0
 25 27  4  0
M  END
$$$$

 Created by Python create_sdf_string function

 28 30  0  0  0  0  0  0  0  0999 V2000
   11.4592   11.2893   18.7941 C   0  0  0  0  0  0  0  0  0  0  0  0
    3.4202    7.9009   20.3866 C   0  0  0  0  0  0  0  0  0  0  0  0
   13.5280   10.3522   19.3586 C   0  0  0  0  0  0  0  0  0  0  0  0
    9.6923    5.6468   22.7891 C   0  0  0  0  0  0  0  0  0  0  0  0
   11.7756   10.2554   20.8841 N   0  0  0  0  0  0  0  0  0  0  0  0
    8.9876   11.9370   19.8757 O   0  0  0  0  0  0  0  0  0  0  0  0
    6.0167    8.4478   21.1089 C   0  0  0  0  0  0  0  0  0  0  0  0
   11.0002   10.8890   20.0262 C   0  0  0  0  0  0  0  0  0  0  0  0
    2.1721    7.7393   20.0315 O   0  0  0  0  0  0  0  0  0  0  0  0
    9.1107   10.3880   21.3769 N   0  0  0  0  0  0  0  0  0  0  0  0
    3.9102    9.2008   20.3124 C   0  0  0  0  0  0  0  0  0  0  0  0
   12.7292   10.9960   18.4597 C   0  0  0  0  0  0  0  0  0  0  0  0
    9.3798    6.6793   23.6625 C   0  0  0  0  0  0  0  0  0  0  0  0
   14.7425   10.0739   19.0802 O   0  0  0  0  0  0  0  0  0  0  0  0
    5.1894    9.4673   20.7118 C   0  0  0  0  0  0  0  0  0  0  0  0
    7.3773    8.8224   21.4870 C   0  0  0  0  0  0  0  0  0  0  0  0
    8.4391    6.6439   21.0235 C   0  0  0  0  0  0  0  0  0  0  0  0
    9.6494   11.1353   20.4167 C   0  0  0  0  0  0  0  0  0  0  0  0
    8.1431    7.6829   21.9046 C   0  0  0  0  0  0  0  0  0  0  0  0
    7.7796   10.1314   21.5115 N   0  0  0  0  0  0  0  0  0  0  0  0
    9.2768    5.6183   21.4437 C   0  0  0  0  0  0  0  0  0  0  0  0
    8.6315    7.7322   23.1768 C   0  0  0  0  0  0  0  0  0  0  0  0
   13.0537    9.9821   20.5781 C   0  0  0  0  0  0  0  0  0  0  0  0
   10.3850    4.6575   23.2386 O   0  0  0  0  0  0  0  0  0  0  0  0
    4.2069    6.8450   20.7994 C   0  0  0  0  0  0  0  0  0  0  0  0
    3.0726   10.1043   19.8522 O   0  0  0  0  0  0  0  0  0  0  0  0
    5.5057    7.1196   21.1155 C   0  0  0  0  0  0  0  0  0  0  0  0
    7.0367   11.0229   21.9948 O   0  0  0  0  0  0  0  0  0  0  0  0
  1  8  4  0
  1 12  4  0
  2  9  1  0
  2 11  4  0
  2 25  4  0
  3 12  4  0
  3 14  1  0
  3 23  4  0
  4 13  4  0
  4 21  4  0
  4 24  1  0
  5  8  4  0
  5 23  4  0
  6 18  2  0
  7 15  4  0
  7 16  1  0
  7 27  4  0
  8 18  1  0
 10 18  1  0
 10 20  1  0
 11 15  4  0
 11 26  1  0
 13 22  4  0
 16 19  1  0
 16 20  2  0
 17 19  4  0
 17 21  4  0
 19 22  4  0
 20 28  1  0
 25 27  4  0
M  END
$$$$

 Created by Python create_sdf_string function

 28 30  0  0  0  0  0  0  0  0999 V2000
   11.4592   11.2893   18.7941 C   0  0  0  0  0  0  0  0  0  0  0  0
    3.4202    7.9009   20.3866 C   0  0  0  0  0  0  0  0  0  0  0  0
   13.5280   10.3522   19.3586 C   0  0  0  0  0  0  0  0  0  0  0  0
    9.6923    5.6468   22.7891 C   0  0  0  0  0  0  0  0  0  0  0  0
   11.7756   10.2554   20.8841 N   0  0  0  0  0  0  0  0  0  0  0  0
    8.9876   11.9370   19.8757 O   0  0  0  0  0  0  0  0  0  0  0  0
    6.0167    8.4478   21.1089 C   0  0  0  0  0  0  0  0  0  0  0  0
   11.0002   10.8890   20.0262 C   0  0  0  0  0  0  0  0  0  0  0  0
    2.1721    7.7393   20.0315 O   0  0  0  0  0  0  0  0  0  0  0  0
    9.1107   10.3880   21.3769 N   0  0  0  0  0  0  0  0  0  0  0  0
    3.9102    9.2008   20.3124 C   0  0  0  0  0  0  0  0  0  0  0  0
   12.7292   10.9960   18.4597 C   0  0  0  0  0  0  0  0  0  0  0  0
    9.3798    6.6793   23.6625 C   0  0  0  0  0  0  0  0  0  0  0  0
   14.7425   10.0739   19.0802 O   0  0  0  0  0  0  0  0  0  0  0  0
    5.1894    9.4673   20.7118 C   0  0  0  0  0  0  0  0  0  0  0  0
    7.3773    8.8224   21.4870 C   0  0  0  0  0  0  0  0  0  0  0  0
    8.4391    6.6439   21.0235 C   0  0  0  0  0  0  0  0  0  0  0  0
    9.6494   11.1353   20.4167 C   0  0  0  0  0  0  0  0  0  0  0  0
    8.1431    7.6829   21.9046 C   0  0  0  0  0  0  0  0  0  0  0  0
    7.7796   10.1314   21.5115 N   0  0  0  0  0  0  0  0  0  0  0  0
    9.2768    5.6183   21.4437 C   0  0  0  0  0  0  0  0  0  0  0  0
    8.6315    7.7322   23.1768 C   0  0  0  0  0  0  0  0  0  0  0  0
   13.0537    9.9821   20.5781 C   0  0  0  0  0  0  0  0  0  0  0  0
   10.3850    4.6575   23.2386 O   0  0  0  0  0  0  0  0  0  0  0  0
    4.2069    6.8450   20.7994 C   0  0  0  0  0  0  0  0  0  0  0  0
    3.0726   10.1043   19.8522 O   0  0  0  0  0  0  0  0  0  0  0  0
    5.5057    7.1196   21.1155 C   0  0  0  0  0  0  0  0  0  0  0  0
    7.0367   11.0229   21.9948 O   0  0  0  0  0  0  0  0  0  0  0  0
  1  8  4  0
  1 12  4  0
  2  9  1  0
  2 11  4  0
  2 25  4  0
  3 12  4  0
  3 14  1  0
  3 23  4  0
  4 13  4  0
  4 21  4  0
  4 24  1  0
  5  8  4  0
  5 23  4  0
  6 18  2  0
  7 15  4  0
  7 16  1  0
  7 27  4  0
  8 18  1  0
 10 18  1  0
 10 20  1  0
 11 15  4  0
 11 26  1  0
 13 22  4  0
 16 19  1  0
 16 20  2  0
 17 19  4  0
 17 21  4  0
 19 22  4  0
 20 28  1  0
 25 27  4  0
M  END
$$$$

 Created by Python create_sdf_string function

 28 30  0  0  0  0  0  0  0  0999 V2000
   11.4592   11.2893   18.7941 C   0  0  0  0  0  0  0  0  0  0  0  0
    3.4202    7.9009   20.3866 C   0  0  0  0  0  0  0  0  0  0  0  0
   13.5280   10.3522   19.3586 C   0  0  0  0  0  0  0  0  0  0  0  0
    9.6923    5.6468   22.7891 C   0  0  0  0  0  0  0  0  0  0  0  0
   11.7756   10.2554   20.8841 N   0  0  0  0  0  0  0  0  0  0  0  0
    8.9876   11.9370   19.8757 O   0  0  0  0  0  0  0  0  0  0  0  0
    6.0167    8.4478   21.1089 C   0  0  0  0  0  0  0  0  0  0  0  0
   11.0002   10.8890   20.0262 C   0  0  0  0  0  0  0  0  0  0  0  0
    2.1721    7.7393   20.0315 O   0  0  0  0  0  0  0  0  0  0  0  0
    9.1107   10.3880   21.3769 N   0  0  0  0  0  0  0  0  0  0  0  0
    3.9102    9.2008   20.3124 C   0  0  0  0  0  0  0  0  0  0  0  0
   12.7292   10.9960   18.4597 C   0  0  0  0  0  0  0  0  0  0  0  0
    9.3798    6.6793   23.6625 C   0  0  0  0  0  0  0  0  0  0  0  0
   14.7425   10.0739   19.0802 O   0  0  0  0  0  0  0  0  0  0  0  0
    5.1894    9.4673   20.7118 C   0  0  0  0  0  0  0  0  0  0  0  0
    7.3773    8.8224   21.4870 C   0  0  0  0  0  0  0  0  0  0  0  0
    8.4391    6.6439   21.0235 C   0  0  0  0  0  0  0  0  0  0  0  0
    9.6494   11.1353   20.4167 C   0  0  0  0  0  0  0  0  0  0  0  0
    8.1431    7.6829   21.9046 C   0  0  0  0  0  0  0  0  0  0  0  0
    7.7796   10.1314   21.5115 N   0  0  0  0  0  0  0  0  0  0  0  0
    9.2768    5.6183   21.4437 C   0  0  0  0  0  0  0  0  0  0  0  0
    8.6315    7.7322   23.1768 C   0  0  0  0  0  0  0  0  0  0  0  0
   13.0537    9.9821   20.5781 C   0  0  0  0  0  0  0  0  0  0  0  0
   10.3850    4.6575   23.2386 O   0  0  0  0  0  0  0  0  0  0  0  0
    4.2069    6.8450   20.7994 C   0  0  0  0  0  0  0  0  0  0  0  0
    3.0726   10.1043   19.8522 O   0  0  0  0  0  0  0  0  0  0  0  0
    5.5057    7.1196   21.1155 C   0  0  0  0  0  0  0  0  0  0  0  0
    7.0367   11.0229   21.9948 O   0  0  0  0  0  0  0  0  0  0  0  0
  1  8  4  0
  1 12  4  0
  2  9  1  0
  2 11  4  0
  2 25  4  0
  3 12  4  0
  3 14  1  0
  3 23  4  0
  4 13  4  0
  4 21  4  0
  4 24  1  0
  5  8  4  0
  5 23  4  0
  6 18  2  0
  7 15  4  0
  7 16  1  0
  7 27  4  0
  8 18  1  0
 10 18  1  0
 10 20  1  0
 11 15  4  0
 11 26  1  0
 13 22  4  0
 16 19  1  0
 16 20  2  0
 17 19  4  0
 17 21  4  0
 19 22  4  0
 20 28  1  0
 25 27  4  0
M  END
$$$$

 Created by Python create_sdf_string function

 28 30  0  0  0  0  0  0  0  0999 V2000
   11.4592   11.2893   18.7941 C   0  0  0  0  0  0  0  0  0  0  0  0
    3.4202    7.9009   20.3866 C   0  0  0  0  0  0  0  0  0  0  0  0
   13.5280   10.3522   19.3586 C   0  0  0  0  0  0  0  0  0  0  0  0
    9.6923    5.6468   22.7891 C   0  0  0  0  0  0  0  0  0  0  0  0
   11.7756   10.2554   20.8841 N   0  0  0  0  0  0  0  0  0  0  0  0
    8.9876   11.9370   19.8757 O   0  0  0  0  0  0  0  0  0  0  0  0
    6.0167    8.4478   21.1089 C   0  0  0  0  0  0  0  0  0  0  0  0
   11.0002   10.8890   20.0262 C   0  0  0  0  0  0  0  0  0  0  0  0
    2.1721    7.7393   20.0315 O   0  0  0  0  0  0  0  0  0  0  0  0
    9.1107   10.3880   21.3769 N   0  0  0  0  0  0  0  0  0  0  0  0
    3.9102    9.2008   20.3124 C   0  0  0  0  0  0  0  0  0  0  0  0
   12.7292   10.9960   18.4597 C   0  0  0  0  0  0  0  0  0  0  0  0
    9.3798    6.6793   23.6625 C   0  0  0  0  0  0  0  0  0  0  0  0
   14.7425   10.0739   19.0802 O   0  0  0  0  0  0  0  0  0  0  0  0
    5.1894    9.4673   20.7118 C   0  0  0  0  0  0  0  0  0  0  0  0
    7.3773    8.8224   21.4870 C   0  0  0  0  0  0  0  0  0  0  0  0
    8.4391    6.6439   21.0235 C   0  0  0  0  0  0  0  0  0  0  0  0
    9.6494   11.1353   20.4167 C   0  0  0  0  0  0  0  0  0  0  0  0
    8.1431    7.6829   21.9046 C   0  0  0  0  0  0  0  0  0  0  0  0
    7.7796   10.1314   21.5115 N   0  0  0  0  0  0  0  0  0  0  0  0
    9.2768    5.6183   21.4437 C   0  0  0  0  0  0  0  0  0  0  0  0
    8.6315    7.7322   23.1768 C   0  0  0  0  0  0  0  0  0  0  0  0
   13.0537    9.9821   20.5781 C   0  0  0  0  0  0  0  0  0  0  0  0
   10.3850    4.6575   23.2386 O   0  0  0  0  0  0  0  0  0  0  0  0
    4.2069    6.8450   20.7994 C   0  0  0  0  0  0  0  0  0  0  0  0
    3.0726   10.1043   19.8522 O   0  0  0  0  0  0  0  0  0  0  0  0
    5.5057    7.1196   21.1155 C   0  0  0  0  0  0  0  0  0  0  0  0
    7.0367   11.0229   21.9948 O   0  0  0  0  0  0  0  0  0  0  0  0
  1  8  4  0
  1 12  4  0
  2  9  1  0
  2 11  4  0
  2 25  4  0
  3 12  4  0
  3 14  1  0
  3 23  4  0
  4 13  4  0
  4 21  4  0
  4 24  1  0
  5  8  4  0
  5 23  4  0
  6 18  2  0
  7 15  4  0
  7 16  1  0
  7 27  4  0
  8 18  1  0
 10 18  1  0
 10 20  1  0
 11 15  4  0
 11 26  1  0
 13 22  4  0
 16 19  1  0
 16 20  2  0
 17 19  4  0
 17 21  4  0
 19 22  4  0
 20 28  1  0
 25 27  4  0
M  END
$$$$

 Created by Python create_sdf_string function

 28 30  0  0  0  0  0  0  0  0999 V2000
   11.4592   11.2893   18.7941 C   0  0  0  0  0  0  0  0  0  0  0  0
    3.4202    7.9009   20.3866 C   0  0  0  0  0  0  0  0  0  0  0  0
   13.5280   10.3522   19.3586 C   0  0  0  0  0  0  0  0  0  0  0  0
    9.6923    5.6468   22.7891 C   0  0  0  0  0  0  0  0  0  0  0  0
   11.7756   10.2554   20.8841 N   0  0  0  0  0  0  0  0  0  0  0  0
    8.9876   11.9370   19.8757 O   0  0  0  0  0  0  0  0  0  0  0  0
    6.0167    8.4478   21.1089 C   0  0  0  0  0  0  0  0  0  0  0  0
   11.0002   10.8890   20.0262 C   0  0  0  0  0  0  0  0  0  0  0  0
    2.1721    7.7393   20.0315 O   0  0  0  0  0  0  0  0  0  0  0  0
    9.1107   10.3880   21.3769 N   0  0  0  0  0  0  0  0  0  0  0  0
    3.9102    9.2008   20.3124 C   0  0  0  0  0  0  0  0  0  0  0  0
   12.7292   10.9960   18.4597 C   0  0  0  0  0  0  0  0  0  0  0  0
    9.3798    6.6793   23.6625 C   0  0  0  0  0  0  0  0  0  0  0  0
   14.7425   10.0739   19.0802 O   0  0  0  0  0  0  0  0  0  0  0  0
    5.1894    9.4673   20.7118 C   0  0  0  0  0  0  0  0  0  0  0  0
    7.3773    8.8224   21.4870 C   0  0  0  0  0  0  0  0  0  0  0  0
    8.4391    6.6439   21.0235 C   0  0  0  0  0  0  0  0  0  0  0  0
    9.6494   11.1353   20.4167 C   0  0  0  0  0  0  0  0  0  0  0  0
    8.1431    7.6829   21.9046 C   0  0  0  0  0  0  0  0  0  0  0  0
    7.7796   10.1314   21.5115 N   0  0  0  0  0  0  0  0  0  0  0  0
    9.2768    5.6183   21.4437 C   0  0  0  0  0  0  0  0  0  0  0  0
    8.6315    7.7322   23.1768 C   0  0  0  0  0  0  0  0  0  0  0  0
   13.0537    9.9821   20.5781 C   0  0  0  0  0  0  0  0  0  0  0  0
   10.3850    4.6575   23.2386 O   0  0  0  0  0  0  0  0  0  0  0  0
    4.2069    6.8450   20.7994 C   0  0  0  0  0  0  0  0  0  0  0  0
    3.0726   10.1043   19.8522 O   0  0  0  0  0  0  0  0  0  0  0  0
    5.5057    7.1196   21.1155 C   0  0  0  0  0  0  0  0  0  0  0  0
    7.0367   11.0229   21.9948 O   0  0  0  0  0  0  0  0  0  0  0  0
  1  8  4  0
  1 12  4  0
  2  9  1  0
  2 11  4  0
  2 25  4  0
  3 12  4  0
  3 14  1  0
  3 23  4  0
  4 13  4  0
  4 21  4  0
  4 24  1  0
  5  8  4  0
  5 23  4  0
  6 18  2  0
  7 15  4  0
  7 16  1  0
  7 27  4  0
  8 18  1  0
 10 18  1  0
 10 20  1  0
 11 15  4  0
 11 26  1  0
 13 22  4  0
 16 19  1  0
 16 20  2  0
 17 19  4  0
 17 21  4  0
 19 22  4  0
 20 28  1  0
 25 27  4  0
M  END
$$$$

 Created by Python create_sdf_string function

 28 30  0  0  0  0  0  0  0  0999 V2000
   11.4592   11.2893   18.7941 C   0  0  0  0  0  0  0  0  0  0  0  0
    3.4202    7.9009   20.3866 C   0  0  0  0  0  0  0  0  0  0  0  0
   13.5280   10.3522   19.3586 C   0  0  0  0  0  0  0  0  0  0  0  0
    9.6923    5.6468   22.7891 C   0  0  0  0  0  0  0  0  0  0  0  0
   11.7756   10.2554   20.8841 N   0  0  0  0  0  0  0  0  0  0  0  0
    8.9876   11.9370   19.8757 O   0  0  0  0  0  0  0  0  0  0  0  0
    6.0167    8.4478   21.1089 C   0  0  0  0  0  0  0  0  0  0  0  0
   11.0002   10.8890   20.0262 C   0  0  0  0  0  0  0  0  0  0  0  0
    2.1721    7.7393   20.0315 O   0  0  0  0  0  0  0  0  0  0  0  0
    9.1107   10.3880   21.3769 N   0  0  0  0  0  0  0  0  0  0  0  0
    3.9102    9.2008   20.3124 C   0  0  0  0  0  0  0  0  0  0  0  0
   12.7292   10.9960   18.4597 C   0  0  0  0  0  0  0  0  0  0  0  0
    9.3798    6.6793   23.6625 C   0  0  0  0  0  0  0  0  0  0  0  0
   14.7425   10.0739   19.0802 O   0  0  0  0  0  0  0  0  0  0  0  0
    5.1894    9.4673   20.7118 C   0  0  0  0  0  0  0  0  0  0  0  0
    7.3773    8.8224   21.4870 C   0  0  0  0  0  0  0  0  0  0  0  0
    8.4391    6.6439   21.0235 C   0  0  0  0  0  0  0  0  0  0  0  0
    9.6494   11.1353   20.4167 C   0  0  0  0  0  0  0  0  0  0  0  0
    8.1431    7.6829   21.9046 C   0  0  0  0  0  0  0  0  0  0  0  0
    7.7796   10.1314   21.5115 N   0  0  0  0  0  0  0  0  0  0  0  0
    9.2768    5.6183   21.4437 C   0  0  0  0  0  0  0  0  0  0  0  0
    8.6315    7.7322   23.1768 C   0  0  0  0  0  0  0  0  0  0  0  0
   13.0537    9.9821   20.5781 C   0  0  0  0  0  0  0  0  0  0  0  0
   10.3850    4.6575   23.2386 O   0  0  0  0  0  0  0  0  0  0  0  0
    4.2069    6.8450   20.7994 C   0  0  0  0  0  0  0  0  0  0  0  0
    3.0726   10.1043   19.8522 O   0  0  0  0  0  0  0  0  0  0  0  0
    5.5057    7.1196   21.1155 C   0  0  0  0  0  0  0  0  0  0  0  0
    7.0367   11.0229   21.9948 O   0  0  0  0  0  0  0  0  0  0  0  0
  1  8  4  0
  1 12  4  0
  2  9  1  0
  2 11  4  0
  2 25  4  0
  3 12  4  0
  3 14  1  0
  3 23  4  0
  4 13  4  0
  4 21  4  0
  4 24  1  0
  5  8  4  0
  5 23  4  0
  6 18  2  0
  7 15  4  0
  7 16  1  0
  7 27  4  0
  8 18  1  0
 10 18  1  0
 10 20  1  0
 11 15  4  0
 11 26  1  0
 13 22  4  0
 16 19  1  0
 16 20  2  0
 17 19  4  0
 17 21  4  0
 19 22  4  0
 20 28  1  0
 25 27  4  0
M  END
$$$$

 Created by Python create_sdf_string function

 28 30  0  0  0  0  0  0  0  0999 V2000
   11.4592   11.2893   18.7941 C   0  0  0  0  0  0  0  0  0  0  0  0
    3.4202    7.9009   20.3866 C   0  0  0  0  0  0  0  0  0  0  0  0
   13.5280   10.3522   19.3586 C   0  0  0  0  0  0  0  0  0  0  0  0
    9.6923    5.6468   22.7891 C   0  0  0  0  0  0  0  0  0  0  0  0
   11.7756   10.2554   20.8841 N   0  0  0  0  0  0  0  0  0  0  0  0
    8.9876   11.9370   19.8757 O   0  0  0  0  0  0  0  0  0  0  0  0
    6.0167    8.4478   21.1089 C   0  0  0  0  0  0  0  0  0  0  0  0
   11.0002   10.8890   20.0262 C   0  0  0  0  0  0  0  0  0  0  0  0
    2.1721    7.7393   20.0315 O   0  0  0  0  0  0  0  0  0  0  0  0
    9.1107   10.3880   21.3769 N   0  0  0  0  0  0  0  0  0  0  0  0
    3.9102    9.2008   20.3124 C   0  0  0  0  0  0  0  0  0  0  0  0
   12.7292   10.9960   18.4597 C   0  0  0  0  0  0  0  0  0  0  0  0
    9.3798    6.6793   23.6625 C   0  0  0  0  0  0  0  0  0  0  0  0
   14.7425   10.0739   19.0802 O   0  0  0  0  0  0  0  0  0  0  0  0
    5.1894    9.4673   20.7118 C   0  0  0  0  0  0  0  0  0  0  0  0
    7.3773    8.8224   21.4870 C   0  0  0  0  0  0  0  0  0  0  0  0
    8.4391    6.6439   21.0235 C   0  0  0  0  0  0  0  0  0  0  0  0
    9.6494   11.1353   20.4167 C   0  0  0  0  0  0  0  0  0  0  0  0
    8.1431    7.6829   21.9046 C   0  0  0  0  0  0  0  0  0  0  0  0
    7.7796   10.1314   21.5115 N   0  0  0  0  0  0  0  0  0  0  0  0
    9.2768    5.6183   21.4437 C   0  0  0  0  0  0  0  0  0  0  0  0
    8.6315    7.7322   23.1768 C   0  0  0  0  0  0  0  0  0  0  0  0
   13.0537    9.9821   20.5781 C   0  0  0  0  0  0  0  0  0  0  0  0
   10.3850    4.6575   23.2386 O   0  0  0  0  0  0  0  0  0  0  0  0
    4.2069    6.8450   20.7994 C   0  0  0  0  0  0  0  0  0  0  0  0
    3.0726   10.1043   19.8522 O   0  0  0  0  0  0  0  0  0  0  0  0
    5.5057    7.1196   21.1155 C   0  0  0  0  0  0  0  0  0  0  0  0
    7.0367   11.0229   21.9948 O   0  0  0  0  0  0  0  0  0  0  0  0
  1  8  4  0
  1 12  4  0
  2  9  1  0
  2 11  4  0
  2 25  4  0
  3 12  4  0
  3 14  1  0
  3 23  4  0
  4 13  4  0
  4 21  4  0
  4 24  1  0
  5  8  4  0
  5 23  4  0
  6 18  2  0
  7 15  4  0
  7 16  1  0
  7 27  4  0
  8 18  1  0
 10 18  1  0
 10 20  1  0
 11 15  4  0
 11 26  1  0
 13 22  4  0
 16 19  1  0
 16 20  2  0
 17 19  4  0
 17 21  4  0
 19 22  4  0
 20 28  1  0
 25 27  4  0
M  END
$$$$

 Created by Python create_sdf_string function

 28 30  0  0  0  0  0  0  0  0999 V2000
   11.4592   11.2893   18.7941 C   0  0  0  0  0  0  0  0  0  0  0  0
    3.4202    7.9009   20.3866 C   0  0  0  0  0  0  0  0  0  0  0  0
   13.5280   10.3522   19.3586 C   0  0  0  0  0  0  0  0  0  0  0  0
    9.6923    5.6468   22.7891 C   0  0  0  0  0  0  0  0  0  0  0  0
   11.7756   10.2554   20.8841 N   0  0  0  0  0  0  0  0  0  0  0  0
    8.9876   11.9370   19.8757 O   0  0  0  0  0  0  0  0  0  0  0  0
    6.0167    8.4478   21.1089 C   0  0  0  0  0  0  0  0  0  0  0  0
   11.0002   10.8890   20.0262 C   0  0  0  0  0  0  0  0  0  0  0  0
    2.1721    7.7393   20.0315 O   0  0  0  0  0  0  0  0  0  0  0  0
    9.1107   10.3880   21.3769 N   0  0  0  0  0  0  0  0  0  0  0  0
    3.9102    9.2008   20.3124 C   0  0  0  0  0  0  0  0  0  0  0  0
   12.7292   10.9960   18.4597 C   0  0  0  0  0  0  0  0  0  0  0  0
    9.3798    6.6793   23.6625 C   0  0  0  0  0  0  0  0  0  0  0  0
   14.7425   10.0739   19.0802 O   0  0  0  0  0  0  0  0  0  0  0  0
    5.1894    9.4673   20.7118 C   0  0  0  0  0  0  0  0  0  0  0  0
    7.3773    8.8224   21.4870 C   0  0  0  0  0  0  0  0  0  0  0  0
    8.4391    6.6439   21.0235 C   0  0  0  0  0  0  0  0  0  0  0  0
    9.6494   11.1353   20.4167 C   0  0  0  0  0  0  0  0  0  0  0  0
    8.1431    7.6829   21.9046 C   0  0  0  0  0  0  0  0  0  0  0  0
    7.7796   10.1314   21.5115 N   0  0  0  0  0  0  0  0  0  0  0  0
    9.2768    5.6183   21.4437 C   0  0  0  0  0  0  0  0  0  0  0  0
    8.6315    7.7322   23.1768 C   0  0  0  0  0  0  0  0  0  0  0  0
   13.0537    9.9821   20.5781 C   0  0  0  0  0  0  0  0  0  0  0  0
   10.3850    4.6575   23.2386 O   0  0  0  0  0  0  0  0  0  0  0  0
    4.2069    6.8450   20.7994 C   0  0  0  0  0  0  0  0  0  0  0  0
    3.0726   10.1043   19.8522 O   0  0  0  0  0  0  0  0  0  0  0  0
    5.5057    7.1196   21.1155 C   0  0  0  0  0  0  0  0  0  0  0  0
    7.0367   11.0229   21.9948 O   0  0  0  0  0  0  0  0  0  0  0  0
  1  8  4  0
  1 12  4  0
  2  9  1  0
  2 11  4  0
  2 25  4  0
  3 12  4  0
  3 14  1  0
  3 23  4  0
  4 13  4  0
  4 21  4  0
  4 24  1  0
  5  8  4  0
  5 23  4  0
  6 18  2  0
  7 15  4  0
  7 16  1  0
  7 27  4  0
  8 18  1  0
 10 18  1  0
 10 20  1  0
 11 15  4  0
 11 26  1  0
 13 22  4  0
 16 19  1  0
 16 20  2  0
 17 19  4  0
 17 21  4  0
 19 22  4  0
 20 28  1  0
 25 27  4  0
M  END
$$$$

 Created by Python create_sdf_string function

 28 30  0  0  0  0  0  0  0  0999 V2000
   11.4592   11.2893   18.7941 C   0  0  0  0  0  0  0  0  0  0  0  0
    3.4202    7.9009   20.3866 C   0  0  0  0  0  0  0  0  0  0  0  0
   13.5280   10.3522   19.3586 C   0  0  0  0  0  0  0  0  0  0  0  0
    9.6923    5.6468   22.7891 C   0  0  0  0  0  0  0  0  0  0  0  0
   11.7756   10.2554   20.8841 N   0  0  0  0  0  0  0  0  0  0  0  0
    8.9876   11.9370   19.8757 O   0  0  0  0  0  0  0  0  0  0  0  0
    6.0167    8.4478   21.1089 C   0  0  0  0  0  0  0  0  0  0  0  0
   11.0002   10.8890   20.0262 C   0  0  0  0  0  0  0  0  0  0  0  0
    2.1721    7.7393   20.0315 O   0  0  0  0  0  0  0  0  0  0  0  0
    9.1107   10.3880   21.3769 N   0  0  0  0  0  0  0  0  0  0  0  0
    3.9102    9.2008   20.3124 C   0  0  0  0  0  0  0  0  0  0  0  0
   12.7292   10.9960   18.4597 C   0  0  0  0  0  0  0  0  0  0  0  0
    9.3798    6.6793   23.6625 C   0  0  0  0  0  0  0  0  0  0  0  0
   14.7425   10.0739   19.0802 O   0  0  0  0  0  0  0  0  0  0  0  0
    5.1894    9.4673   20.7118 C   0  0  0  0  0  0  0  0  0  0  0  0
    7.3773    8.8224   21.4870 C   0  0  0  0  0  0  0  0  0  0  0  0
    8.4391    6.6439   21.0235 C   0  0  0  0  0  0  0  0  0  0  0  0
    9.6494   11.1353   20.4167 C   0  0  0  0  0  0  0  0  0  0  0  0
    8.1431    7.6829   21.9046 C   0  0  0  0  0  0  0  0  0  0  0  0
    7.7796   10.1314   21.5115 N   0  0  0  0  0  0  0  0  0  0  0  0
    9.2768    5.6183   21.4437 C   0  0  0  0  0  0  0  0  0  0  0  0
    8.6315    7.7322   23.1768 C   0  0  0  0  0  0  0  0  0  0  0  0
   13.0537    9.9821   20.5781 C   0  0  0  0  0  0  0  0  0  0  0  0
   10.3850    4.6575   23.2386 O   0  0  0  0  0  0  0  0  0  0  0  0
    4.2069    6.8450   20.7994 C   0  0  0  0  0  0  0  0  0  0  0  0
    3.0726   10.1043   19.8522 O   0  0  0  0  0  0  0  0  0  0  0  0
    5.5057    7.1196   21.1155 C   0  0  0  0  0  0  0  0  0  0  0  0
    7.0367   11.0229   21.9948 O   0  0  0  0  0  0  0  0  0  0  0  0
  1  8  4  0
  1 12  4  0
  2  9  1  0
  2 11  4  0
  2 25  4  0
  3 12  4  0
  3 14  1  0
  3 23  4  0
  4 13  4  0
  4 21  4  0
  4 24  1  0
  5  8  4  0
  5 23  4  0
  6 18  2  0
  7 15  4  0
  7 16  1  0
  7 27  4  0
  8 18  1  0
 10 18  1  0
 10 20  1  0
 11 15  4  0
 11 26  1  0
 13 22  4  0
 16 19  1  0
 16 20  2  0
 17 19  4  0
 17 21  4  0
 19 22  4  0
 20 28  1  0
 25 27  4  0
M  END
$$$$

 Created by Python create_sdf_string function

 28 30  0  0  0  0  0  0  0  0999 V2000
   11.4592   11.2893   18.7941 C   0  0  0  0  0  0  0  0  0  0  0  0
    3.4202    7.9009   20.3866 C   0  0  0  0  0  0  0  0  0  0  0  0
   13.5280   10.3522   19.3586 C   0  0  0  0  0  0  0  0  0  0  0  0
    9.6923    5.6468   22.7891 C   0  0  0  0  0  0  0  0  0  0  0  0
   11.7756   10.2554   20.8841 N   0  0  0  0  0  0  0  0  0  0  0  0
    8.9876   11.9370   19.8757 O   0  0  0  0  0  0  0  0  0  0  0  0
    6.0167    8.4478   21.1089 C   0  0  0  0  0  0  0  0  0  0  0  0
   11.0002   10.8890   20.0262 C   0  0  0  0  0  0  0  0  0  0  0  0
    2.1721    7.7393   20.0315 O   0  0  0  0  0  0  0  0  0  0  0  0
    9.1107   10.3880   21.3769 N   0  0  0  0  0  0  0  0  0  0  0  0
    3.9102    9.2008   20.3124 C   0  0  0  0  0  0  0  0  0  0  0  0
   12.7292   10.9960   18.4597 C   0  0  0  0  0  0  0  0  0  0  0  0
    9.3798    6.6793   23.6625 C   0  0  0  0  0  0  0  0  0  0  0  0
   14.7425   10.0739   19.0802 O   0  0  0  0  0  0  0  0  0  0  0  0
    5.1894    9.4673   20.7118 C   0  0  0  0  0  0  0  0  0  0  0  0
    7.3773    8.8224   21.4870 C   0  0  0  0  0  0  0  0  0  0  0  0
    8.4391    6.6439   21.0235 C   0  0  0  0  0  0  0  0  0  0  0  0
    9.6494   11.1353   20.4167 C   0  0  0  0  0  0  0  0  0  0  0  0
    8.1431    7.6829   21.9046 C   0  0  0  0  0  0  0  0  0  0  0  0
    7.7796   10.1314   21.5115 N   0  0  0  0  0  0  0  0  0  0  0  0
    9.2768    5.6183   21.4437 C   0  0  0  0  0  0  0  0  0  0  0  0
    8.6315    7.7322   23.1768 C   0  0  0  0  0  0  0  0  0  0  0  0
   13.0537    9.9821   20.5781 C   0  0  0  0  0  0  0  0  0  0  0  0
   10.3850    4.6575   23.2386 O   0  0  0  0  0  0  0  0  0  0  0  0
    4.2069    6.8450   20.7994 C   0  0  0  0  0  0  0  0  0  0  0  0
    3.0726   10.1043   19.8522 O   0  0  0  0  0  0  0  0  0  0  0  0
    5.5057    7.1196   21.1155 C   0  0  0  0  0  0  0  0  0  0  0  0
    7.0367   11.0229   21.9948 O   0  0  0  0  0  0  0  0  0  0  0  0
  1  8  4  0
  1 12  4  0
  2  9  1  0
  2 11  4  0
  2 25  4  0
  3 12  4  0
  3 14  1  0
  3 23  4  0
  4 13  4  0
  4 21  4  0
  4 24  1  0
  5  8  4  0
  5 23  4  0
  6 18  2  0
  7 15  4  0
  7 16  1  0
  7 27  4  0
  8 18  1  0
 10 18  1  0
 10 20  1  0
 11 15  4  0
 11 26  1  0
 13 22  4  0
 16 19  1  0
 16 20  2  0
 17 19  4  0
 17 21  4  0
 19 22  4  0
 20 28  1  0
 25 27  4  0
M  END
$$$$

 Created by Python create_sdf_string function

 28 30  0  0  0  0  0  0  0  0999 V2000
   11.4592   11.2893   18.7941 C   0  0  0  0  0  0  0  0  0  0  0  0
    3.4202    7.9009   20.3866 C   0  0  0  0  0  0  0  0  0  0  0  0
   13.5280   10.3522   19.3586 C   0  0  0  0  0  0  0  0  0  0  0  0
    9.6923    5.6468   22.7891 C   0  0  0  0  0  0  0  0  0  0  0  0
   11.7756   10.2554   20.8841 N   0  0  0  0  0  0  0  0  0  0  0  0
    8.9876   11.9370   19.8757 O   0  0  0  0  0  0  0  0  0  0  0  0
    6.0167    8.4478   21.1089 C   0  0  0  0  0  0  0  0  0  0  0  0
   11.0002   10.8890   20.0262 C   0  0  0  0  0  0  0  0  0  0  0  0
    2.1721    7.7393   20.0315 O   0  0  0  0  0  0  0  0  0  0  0  0
    9.1107   10.3880   21.3769 N   0  0  0  0  0  0  0  0  0  0  0  0
    3.9102    9.2008   20.3124 C   0  0  0  0  0  0  0  0  0  0  0  0
   12.7292   10.9960   18.4597 C   0  0  0  0  0  0  0  0  0  0  0  0
    9.3798    6.6793   23.6625 C   0  0  0  0  0  0  0  0  0  0  0  0
   14.7425   10.0739   19.0802 O   0  0  0  0  0  0  0  0  0  0  0  0
    5.1894    9.4673   20.7118 C   0  0  0  0  0  0  0  0  0  0  0  0
    7.3773    8.8224   21.4870 C   0  0  0  0  0  0  0  0  0  0  0  0
    8.4391    6.6439   21.0235 C   0  0  0  0  0  0  0  0  0  0  0  0
    9.6494   11.1353   20.4167 C   0  0  0  0  0  0  0  0  0  0  0  0
    8.1431    7.6829   21.9046 C   0  0  0  0  0  0  0  0  0  0  0  0
    7.7796   10.1314   21.5115 N   0  0  0  0  0  0  0  0  0  0  0  0
    9.2768    5.6183   21.4437 C   0  0  0  0  0  0  0  0  0  0  0  0
    8.6315    7.7322   23.1768 C   0  0  0  0  0  0  0  0  0  0  0  0
   13.0537    9.9821   20.5781 C   0  0  0  0  0  0  0  0  0  0  0  0
   10.3850    4.6575   23.2386 O   0  0  0  0  0  0  0  0  0  0  0  0
    4.2069    6.8450   20.7994 C   0  0  0  0  0  0  0  0  0  0  0  0
    3.0726   10.1043   19.8522 O   0  0  0  0  0  0  0  0  0  0  0  0
    5.5057    7.1196   21.1155 C   0  0  0  0  0  0  0  0  0  0  0  0
    7.0367   11.0229   21.9948 O   0  0  0  0  0  0  0  0  0  0  0  0
  1  8  4  0
  1 12  4  0
  2  9  1  0
  2 11  4  0
  2 25  4  0
  3 12  4  0
  3 14  1  0
  3 23  4  0
  4 13  4  0
  4 21  4  0
  4 24  1  0
  5  8  4  0
  5 23  4  0
  6 18  2  0
  7 15  4  0
  7 16  1  0
  7 27  4  0
  8 18  1  0
 10 18  1  0
 10 20  1  0
 11 15  4  0
 11 26  1  0
 13 22  4  0
 16 19  1  0
 16 20  2  0
 17 19  4  0
 17 21  4  0
 19 22  4  0
 20 28  1  0
 25 27  4  0
M  END
$$$$

 Created by Python create_sdf_string function

 28 30  0  0  0  0  0  0  0  0999 V2000
   11.4592   11.2893   18.7941 C   0  0  0  0  0  0  0  0  0  0  0  0
    3.4202    7.9009   20.3866 C   0  0  0  0  0  0  0  0  0  0  0  0
   13.5280   10.3522   19.3586 C   0  0  0  0  0  0  0  0  0  0  0  0
    9.6923    5.6468   22.7891 C   0  0  0  0  0  0  0  0  0  0  0  0
   11.7756   10.2554   20.8841 N   0  0  0  0  0  0  0  0  0  0  0  0
    8.9876   11.9370   19.8757 O   0  0  0  0  0  0  0  0  0  0  0  0
    6.0167    8.4478   21.1089 C   0  0  0  0  0  0  0  0  0  0  0  0
   11.0002   10.8890   20.0262 C   0  0  0  0  0  0  0  0  0  0  0  0
    2.1721    7.7393   20.0315 O   0  0  0  0  0  0  0  0  0  0  0  0
    9.1107   10.3880   21.3769 N   0  0  0  0  0  0  0  0  0  0  0  0
    3.9102    9.2008   20.3124 C   0  0  0  0  0  0  0  0  0  0  0  0
   12.7292   10.9960   18.4597 C   0  0  0  0  0  0  0  0  0  0  0  0
    9.3798    6.6793   23.6625 C   0  0  0  0  0  0  0  0  0  0  0  0
   14.7425   10.0739   19.0802 O   0  0  0  0  0  0  0  0  0  0  0  0
    5.1894    9.4673   20.7118 C   0  0  0  0  0  0  0  0  0  0  0  0
    7.3773    8.8224   21.4870 C   0  0  0  0  0  0  0  0  0  0  0  0
    8.4391    6.6439   21.0235 C   0  0  0  0  0  0  0  0  0  0  0  0
    9.6494   11.1353   20.4167 C   0  0  0  0  0  0  0  0  0  0  0  0
    8.1431    7.6829   21.9046 C   0  0  0  0  0  0  0  0  0  0  0  0
    7.7796   10.1314   21.5115 N   0  0  0  0  0  0  0  0  0  0  0  0
    9.2768    5.6183   21.4437 C   0  0  0  0  0  0  0  0  0  0  0  0
    8.6315    7.7322   23.1768 C   0  0  0  0  0  0  0  0  0  0  0  0
   13.0537    9.9821   20.5781 C   0  0  0  0  0  0  0  0  0  0  0  0
   10.3850    4.6575   23.2386 O   0  0  0  0  0  0  0  0  0  0  0  0
    4.2069    6.8450   20.7994 C   0  0  0  0  0  0  0  0  0  0  0  0
    3.0726   10.1043   19.8522 O   0  0  0  0  0  0  0  0  0  0  0  0
    5.5057    7.1196   21.1155 C   0  0  0  0  0  0  0  0  0  0  0  0
    7.0367   11.0229   21.9948 O   0  0  0  0  0  0  0  0  0  0  0  0
  1  8  4  0
  1 12  4  0
  2  9  1  0
  2 11  4  0
  2 25  4  0
  3 12  4  0
  3 14  1  0
  3 23  4  0
  4 13  4  0
  4 21  4  0
  4 24  1  0
  5  8  4  0
  5 23  4  0
  6 18  2  0
  7 15  4  0
  7 16  1  0
  7 27  4  0
  8 18  1  0
 10 18  1  0
 10 20  1  0
 11 15  4  0
 11 26  1  0
 13 22  4  0
 16 19  1  0
 16 20  2  0
 17 19  4  0
 17 21  4  0
 19 22  4  0
 20 28  1  0
 25 27  4  0
M  END
$$$$

 Created by Python create_sdf_string function

 28 30  0  0  0  0  0  0  0  0999 V2000
   11.4592   11.2893   18.7941 C   0  0  0  0  0  0  0  0  0  0  0  0
    3.4202    7.9009   20.3866 C   0  0  0  0  0  0  0  0  0  0  0  0
   13.5280   10.3522   19.3586 C   0  0  0  0  0  0  0  0  0  0  0  0
    9.6923    5.6468   22.7891 C   0  0  0  0  0  0  0  0  0  0  0  0
   11.7756   10.2554   20.8841 N   0  0  0  0  0  0  0  0  0  0  0  0
    8.9876   11.9370   19.8757 O   0  0  0  0  0  0  0  0  0  0  0  0
    6.0167    8.4478   21.1089 C   0  0  0  0  0  0  0  0  0  0  0  0
   11.0002   10.8890   20.0262 C   0  0  0  0  0  0  0  0  0  0  0  0
    2.1721    7.7393   20.0315 O   0  0  0  0  0  0  0  0  0  0  0  0
    9.1107   10.3880   21.3769 N   0  0  0  0  0  0  0  0  0  0  0  0
    3.9102    9.2008   20.3124 C   0  0  0  0  0  0  0  0  0  0  0  0
   12.7292   10.9960   18.4597 C   0  0  0  0  0  0  0  0  0  0  0  0
    9.3798    6.6793   23.6625 C   0  0  0  0  0  0  0  0  0  0  0  0
   14.7425   10.0739   19.0802 O   0  0  0  0  0  0  0  0  0  0  0  0
    5.1894    9.4673   20.7118 C   0  0  0  0  0  0  0  0  0  0  0  0
    7.3773    8.8224   21.4870 C   0  0  0  0  0  0  0  0  0  0  0  0
    8.4391    6.6439   21.0235 C   0  0  0  0  0  0  0  0  0  0  0  0
    9.6494   11.1353   20.4167 C   0  0  0  0  0  0  0  0  0  0  0  0
    8.1431    7.6829   21.9046 C   0  0  0  0  0  0  0  0  0  0  0  0
    7.7796   10.1314   21.5115 N   0  0  0  0  0  0  0  0  0  0  0  0
    9.2768    5.6183   21.4437 C   0  0  0  0  0  0  0  0  0  0  0  0
    8.6315    7.7322   23.1768 C   0  0  0  0  0  0  0  0  0  0  0  0
   13.0537    9.9821   20.5781 C   0  0  0  0  0  0  0  0  0  0  0  0
   10.3850    4.6575   23.2386 O   0  0  0  0  0  0  0  0  0  0  0  0
    4.2069    6.8450   20.7994 C   0  0  0  0  0  0  0  0  0  0  0  0
    3.0726   10.1043   19.8522 O   0  0  0  0  0  0  0  0  0  0  0  0
    5.5057    7.1196   21.1155 C   0  0  0  0  0  0  0  0  0  0  0  0
    7.0367   11.0229   21.9948 O   0  0  0  0  0  0  0  0  0  0  0  0
  1  8  4  0
  1 12  4  0
  2  9  1  0
  2 11  4  0
  2 25  4  0
  3 12  4  0
  3 14  1  0
  3 23  4  0
  4 13  4  0
  4 21  4  0
  4 24  1  0
  5  8  4  0
  5 23  4  0
  6 18  2  0
  7 15  4  0
  7 16  1  0
  7 27  4  0
  8 18  1  0
 10 18  1  0
 10 20  1  0
 11 15  4  0
 11 26  1  0
 13 22  4  0
 16 19  1  0
 16 20  2  0
 17 19  4  0
 17 21  4  0
 19 22  4  0
 20 28  1  0
 25 27  4  0
M  END
$$$$

 Created by Python create_sdf_string function

 28 30  0  0  0  0  0  0  0  0999 V2000
   11.4592   11.2893   18.7941 C   0  0  0  0  0  0  0  0  0  0  0  0
    3.4202    7.9009   20.3866 C   0  0  0  0  0  0  0  0  0  0  0  0
   13.5280   10.3522   19.3586 C   0  0  0  0  0  0  0  0  0  0  0  0
    9.6923    5.6468   22.7891 C   0  0  0  0  0  0  0  0  0  0  0  0
   11.7756   10.2554   20.8841 N   0  0  0  0  0  0  0  0  0  0  0  0
    8.9876   11.9370   19.8757 O   0  0  0  0  0  0  0  0  0  0  0  0
    6.0167    8.4478   21.1089 C   0  0  0  0  0  0  0  0  0  0  0  0
   11.0002   10.8890   20.0262 C   0  0  0  0  0  0  0  0  0  0  0  0
    2.1721    7.7393   20.0315 O   0  0  0  0  0  0  0  0  0  0  0  0
    9.1107   10.3880   21.3769 N   0  0  0  0  0  0  0  0  0  0  0  0
    3.9102    9.2008   20.3124 C   0  0  0  0  0  0  0  0  0  0  0  0
   12.7292   10.9960   18.4597 C   0  0  0  0  0  0  0  0  0  0  0  0
    9.3798    6.6793   23.6625 C   0  0  0  0  0  0  0  0  0  0  0  0
   14.7425   10.0739   19.0802 O   0  0  0  0  0  0  0  0  0  0  0  0
    5.1894    9.4673   20.7118 C   0  0  0  0  0  0  0  0  0  0  0  0
    7.3773    8.8224   21.4870 C   0  0  0  0  0  0  0  0  0  0  0  0
    8.4391    6.6439   21.0235 C   0  0  0  0  0  0  0  0  0  0  0  0
    9.6494   11.1353   20.4167 C   0  0  0  0  0  0  0  0  0  0  0  0
    8.1431    7.6829   21.9046 C   0  0  0  0  0  0  0  0  0  0  0  0
    7.7796   10.1314   21.5115 N   0  0  0  0  0  0  0  0  0  0  0  0
    9.2768    5.6183   21.4437 C   0  0  0  0  0  0  0  0  0  0  0  0
    8.6315    7.7322   23.1768 C   0  0  0  0  0  0  0  0  0  0  0  0
   13.0537    9.9821   20.5781 C   0  0  0  0  0  0  0  0  0  0  0  0
   10.3850    4.6575   23.2386 O   0  0  0  0  0  0  0  0  0  0  0  0
    4.2069    6.8450   20.7994 C   0  0  0  0  0  0  0  0  0  0  0  0
    3.0726   10.1043   19.8522 O   0  0  0  0  0  0  0  0  0  0  0  0
    5.5057    7.1196   21.1155 C   0  0  0  0  0  0  0  0  0  0  0  0
    7.0367   11.0229   21.9948 O   0  0  0  0  0  0  0  0  0  0  0  0
  1  8  4  0
  1 12  4  0
  2  9  1  0
  2 11  4  0
  2 25  4  0
  3 12  4  0
  3 14  1  0
  3 23  4  0
  4 13  4  0
  4 21  4  0
  4 24  1  0
  5  8  4  0
  5 23  4  0
  6 18  2  0
  7 15  4  0
  7 16  1  0
  7 27  4  0
  8 18  1  0
 10 18  1  0
 10 20  1  0
 11 15  4  0
 11 26  1  0
 13 22  4  0
 16 19  1  0
 16 20  2  0
 17 19  4  0
 17 21  4  0
 19 22  4  0
 20 28  1  0
 25 27  4  0
M  END
$$$$

 Created by Python create_sdf_string function

 28 30  0  0  0  0  0  0  0  0999 V2000
   11.4592   11.2893   18.7941 C   0  0  0  0  0  0  0  0  0  0  0  0
    3.4202    7.9009   20.3866 C   0  0  0  0  0  0  0  0  0  0  0  0
   13.5280   10.3522   19.3586 C   0  0  0  0  0  0  0  0  0  0  0  0
    9.6923    5.6468   22.7891 C   0  0  0  0  0  0  0  0  0  0  0  0
   11.7756   10.2554   20.8841 N   0  0  0  0  0  0  0  0  0  0  0  0
    8.9876   11.9370   19.8757 O   0  0  0  0  0  0  0  0  0  0  0  0
    6.0167    8.4478   21.1089 C   0  0  0  0  0  0  0  0  0  0  0  0
   11.0002   10.8890   20.0262 C   0  0  0  0  0  0  0  0  0  0  0  0
    2.1721    7.7393   20.0315 O   0  0  0  0  0  0  0  0  0  0  0  0
    9.1107   10.3880   21.3769 N   0  0  0  0  0  0  0  0  0  0  0  0
    3.9102    9.2008   20.3124 C   0  0  0  0  0  0  0  0  0  0  0  0
   12.7292   10.9960   18.4597 C   0  0  0  0  0  0  0  0  0  0  0  0
    9.3798    6.6793   23.6625 C   0  0  0  0  0  0  0  0  0  0  0  0
   14.7425   10.0739   19.0802 O   0  0  0  0  0  0  0  0  0  0  0  0
    5.1894    9.4673   20.7118 C   0  0  0  0  0  0  0  0  0  0  0  0
    7.3773    8.8224   21.4870 C   0  0  0  0  0  0  0  0  0  0  0  0
    8.4391    6.6439   21.0235 C   0  0  0  0  0  0  0  0  0  0  0  0
    9.6494   11.1353   20.4167 C   0  0  0  0  0  0  0  0  0  0  0  0
    8.1431    7.6829   21.9046 C   0  0  0  0  0  0  0  0  0  0  0  0
    7.7796   10.1314   21.5115 N   0  0  0  0  0  0  0  0  0  0  0  0
    9.2768    5.6183   21.4437 C   0  0  0  0  0  0  0  0  0  0  0  0
    8.6315    7.7322   23.1768 C   0  0  0  0  0  0  0  0  0  0  0  0
   13.0537    9.9821   20.5781 C   0  0  0  0  0  0  0  0  0  0  0  0
   10.3850    4.6575   23.2386 O   0  0  0  0  0  0  0  0  0  0  0  0
    4.2069    6.8450   20.7994 C   0  0  0  0  0  0  0  0  0  0  0  0
    3.0726   10.1043   19.8522 O   0  0  0  0  0  0  0  0  0  0  0  0
    5.5057    7.1196   21.1155 C   0  0  0  0  0  0  0  0  0  0  0  0
    7.0367   11.0229   21.9948 O   0  0  0  0  0  0  0  0  0  0  0  0
  1  8  4  0
  1 12  4  0
  2  9  1  0
  2 11  4  0
  2 25  4  0
  3 12  4  0
  3 14  1  0
  3 23  4  0
  4 13  4  0
  4 21  4  0
  4 24  1  0
  5  8  4  0
  5 23  4  0
  6 18  2  0
  7 15  4  0
  7 16  1  0
  7 27  4  0
  8 18  1  0
 10 18  1  0
 10 20  1  0
 11 15  4  0
 11 26  1  0
 13 22  4  0
 16 19  1  0
 16 20  2  0
 17 19  4  0
 17 21  4  0
 19 22  4  0
 20 28  1  0
 25 27  4  0
M  END
$$$$

 Created by Python create_sdf_string function

 28 30  0  0  0  0  0  0  0  0999 V2000
   11.4592   11.2893   18.7941 C   0  0  0  0  0  0  0  0  0  0  0  0
    3.4202    7.9009   20.3866 C   0  0  0  0  0  0  0  0  0  0  0  0
   13.5280   10.3522   19.3586 C   0  0  0  0  0  0  0  0  0  0  0  0
    9.6923    5.6468   22.7891 C   0  0  0  0  0  0  0  0  0  0  0  0
   11.7756   10.2554   20.8841 N   0  0  0  0  0  0  0  0  0  0  0  0
    8.9876   11.9370   19.8757 O   0  0  0  0  0  0  0  0  0  0  0  0
    6.0167    8.4478   21.1089 C   0  0  0  0  0  0  0  0  0  0  0  0
   11.0002   10.8890   20.0262 C   0  0  0  0  0  0  0  0  0  0  0  0
    2.1721    7.7393   20.0315 O   0  0  0  0  0  0  0  0  0  0  0  0
    9.1107   10.3880   21.3769 N   0  0  0  0  0  0  0  0  0  0  0  0
    3.9102    9.2008   20.3124 C   0  0  0  0  0  0  0  0  0  0  0  0
   12.7292   10.9960   18.4597 C   0  0  0  0  0  0  0  0  0  0  0  0
    9.3798    6.6793   23.6625 C   0  0  0  0  0  0  0  0  0  0  0  0
   14.7425   10.0739   19.0802 O   0  0  0  0  0  0  0  0  0  0  0  0
    5.1894    9.4673   20.7118 C   0  0  0  0  0  0  0  0  0  0  0  0
    7.3773    8.8224   21.4870 C   0  0  0  0  0  0  0  0  0  0  0  0
    8.4391    6.6439   21.0235 C   0  0  0  0  0  0  0  0  0  0  0  0
    9.6494   11.1353   20.4167 C   0  0  0  0  0  0  0  0  0  0  0  0
    8.1431    7.6829   21.9046 C   0  0  0  0  0  0  0  0  0  0  0  0
    7.7796   10.1314   21.5115 N   0  0  0  0  0  0  0  0  0  0  0  0
    9.2768    5.6183   21.4437 C   0  0  0  0  0  0  0  0  0  0  0  0
    8.6315    7.7322   23.1768 C   0  0  0  0  0  0  0  0  0  0  0  0
   13.0537    9.9821   20.5781 C   0  0  0  0  0  0  0  0  0  0  0  0
   10.3850    4.6575   23.2386 O   0  0  0  0  0  0  0  0  0  0  0  0
    4.2069    6.8450   20.7994 C   0  0  0  0  0  0  0  0  0  0  0  0
    3.0726   10.1043   19.8522 O   0  0  0  0  0  0  0  0  0  0  0  0
    5.5057    7.1196   21.1155 C   0  0  0  0  0  0  0  0  0  0  0  0
    7.0367   11.0229   21.9948 O   0  0  0  0  0  0  0  0  0  0  0  0
  1  8  4  0
  1 12  4  0
  2  9  1  0
  2 11  4  0
  2 25  4  0
  3 12  4  0
  3 14  1  0
  3 23  4  0
  4 13  4  0
  4 21  4  0
  4 24  1  0
  5  8  4  0
  5 23  4  0
  6 18  2  0
  7 15  4  0
  7 16  1  0
  7 27  4  0
  8 18  1  0
 10 18  1  0
 10 20  1  0
 11 15  4  0
 11 26  1  0
 13 22  4  0
 16 19  1  0
 16 20  2  0
 17 19  4  0
 17 21  4  0
 19 22  4  0
 20 28  1  0
 25 27  4  0
M  END
$$$$

 Created by Python create_sdf_string function

 28 30  0  0  0  0  0  0  0  0999 V2000
   11.4592   11.2893   18.7941 C   0  0  0  0  0  0  0  0  0  0  0  0
    3.4202    7.9009   20.3866 C   0  0  0  0  0  0  0  0  0  0  0  0
   13.5280   10.3522   19.3586 C   0  0  0  0  0  0  0  0  0  0  0  0
    9.6923    5.6468   22.7891 C   0  0  0  0  0  0  0  0  0  0  0  0
   11.7756   10.2554   20.8841 N   0  0  0  0  0  0  0  0  0  0  0  0
    8.9876   11.9370   19.8757 O   0  0  0  0  0  0  0  0  0  0  0  0
    6.0167    8.4478   21.1089 C   0  0  0  0  0  0  0  0  0  0  0  0
   11.0002   10.8890   20.0262 C   0  0  0  0  0  0  0  0  0  0  0  0
    2.1721    7.7393   20.0315 O   0  0  0  0  0  0  0  0  0  0  0  0
    9.1107   10.3880   21.3769 N   0  0  0  0  0  0  0  0  0  0  0  0
    3.9102    9.2008   20.3124 C   0  0  0  0  0  0  0  0  0  0  0  0
   12.7292   10.9960   18.4597 C   0  0  0  0  0  0  0  0  0  0  0  0
    9.3798    6.6793   23.6625 C   0  0  0  0  0  0  0  0  0  0  0  0
   14.7425   10.0739   19.0802 O   0  0  0  0  0  0  0  0  0  0  0  0
    5.1894    9.4673   20.7118 C   0  0  0  0  0  0  0  0  0  0  0  0
    7.3773    8.8224   21.4870 C   0  0  0  0  0  0  0  0  0  0  0  0
    8.4391    6.6439   21.0235 C   0  0  0  0  0  0  0  0  0  0  0  0
    9.6494   11.1353   20.4167 C   0  0  0  0  0  0  0  0  0  0  0  0
    8.1431    7.6829   21.9046 C   0  0  0  0  0  0  0  0  0  0  0  0
    7.7796   10.1314   21.5115 N   0  0  0  0  0  0  0  0  0  0  0  0
    9.2768    5.6183   21.4437 C   0  0  0  0  0  0  0  0  0  0  0  0
    8.6315    7.7322   23.1768 C   0  0  0  0  0  0  0  0  0  0  0  0
   13.0537    9.9821   20.5781 C   0  0  0  0  0  0  0  0  0  0  0  0
   10.3850    4.6575   23.2386 O   0  0  0  0  0  0  0  0  0  0  0  0
    4.2069    6.8450   20.7994 C   0  0  0  0  0  0  0  0  0  0  0  0
    3.0726   10.1043   19.8522 O   0  0  0  0  0  0  0  0  0  0  0  0
    5.5057    7.1196   21.1155 C   0  0  0  0  0  0  0  0  0  0  0  0
    7.0367   11.0229   21.9948 O   0  0  0  0  0  0  0  0  0  0  0  0
  1  8  4  0
  1 12  4  0
  2  9  1  0
  2 11  4  0
  2 25  4  0
  3 12  4  0
  3 14  1  0
  3 23  4  0
  4 13  4  0
  4 21  4  0
  4 24  1  0
  5  8  4  0
  5 23  4  0
  6 18  2  0
  7 15  4  0
  7 16  1  0
  7 27  4  0
  8 18  1  0
 10 18  1  0
 10 20  1  0
 11 15  4  0
 11 26  1  0
 13 22  4  0
 16 19  1  0
 16 20  2  0
 17 19  4  0
 17 21  4  0
 19 22  4  0
 20 28  1  0
 25 27  4  0
M  END
$$$$

 Created by Python create_sdf_string function

 28 30  0  0  0  0  0  0  0  0999 V2000
   11.4592   11.2893   18.7941 C   0  0  0  0  0  0  0  0  0  0  0  0
    3.4202    7.9009   20.3866 C   0  0  0  0  0  0  0  0  0  0  0  0
   13.5280   10.3522   19.3586 C   0  0  0  0  0  0  0  0  0  0  0  0
    9.6923    5.6468   22.7891 C   0  0  0  0  0  0  0  0  0  0  0  0
   11.7756   10.2554   20.8841 N   0  0  0  0  0  0  0  0  0  0  0  0
    8.9876   11.9370   19.8757 O   0  0  0  0  0  0  0  0  0  0  0  0
    6.0167    8.4478   21.1089 C   0  0  0  0  0  0  0  0  0  0  0  0
   11.0002   10.8890   20.0262 C   0  0  0  0  0  0  0  0  0  0  0  0
    2.1721    7.7393   20.0315 O   0  0  0  0  0  0  0  0  0  0  0  0
    9.1107   10.3880   21.3769 N   0  0  0  0  0  0  0  0  0  0  0  0
    3.9102    9.2008   20.3124 C   0  0  0  0  0  0  0  0  0  0  0  0
   12.7292   10.9960   18.4597 C   0  0  0  0  0  0  0  0  0  0  0  0
    9.3798    6.6793   23.6625 C   0  0  0  0  0  0  0  0  0  0  0  0
   14.7425   10.0739   19.0802 O   0  0  0  0  0  0  0  0  0  0  0  0
    5.1894    9.4673   20.7118 C   0  0  0  0  0  0  0  0  0  0  0  0
    7.3773    8.8224   21.4870 C   0  0  0  0  0  0  0  0  0  0  0  0
    8.4391    6.6439   21.0235 C   0  0  0  0  0  0  0  0  0  0  0  0
    9.6494   11.1353   20.4167 C   0  0  0  0  0  0  0  0  0  0  0  0
    8.1431    7.6829   21.9046 C   0  0  0  0  0  0  0  0  0  0  0  0
    7.7796   10.1314   21.5115 N   0  0  0  0  0  0  0  0  0  0  0  0
    9.2768    5.6183   21.4437 C   0  0  0  0  0  0  0  0  0  0  0  0
    8.6315    7.7322   23.1768 C   0  0  0  0  0  0  0  0  0  0  0  0
   13.0537    9.9821   20.5781 C   0  0  0  0  0  0  0  0  0  0  0  0
   10.3850    4.6575   23.2386 O   0  0  0  0  0  0  0  0  0  0  0  0
    4.2069    6.8450   20.7994 C   0  0  0  0  0  0  0  0  0  0  0  0
    3.0726   10.1043   19.8522 O   0  0  0  0  0  0  0  0  0  0  0  0
    5.5057    7.1196   21.1155 C   0  0  0  0  0  0  0  0  0  0  0  0
    7.0367   11.0229   21.9948 O   0  0  0  0  0  0  0  0  0  0  0  0
  1  8  4  0
  1 12  4  0
  2  9  1  0
  2 11  4  0
  2 25  4  0
  3 12  4  0
  3 14  1  0
  3 23  4  0
  4 13  4  0
  4 21  4  0
  4 24  1  0
  5  8  4  0
  5 23  4  0
  6 18  2  0
  7 15  4  0
  7 16  1  0
  7 27  4  0
  8 18  1  0
 10 18  1  0
 10 20  1  0
 11 15  4  0
 11 26  1  0
 13 22  4  0
 16 19  1  0
 16 20  2  0
 17 19  4  0
 17 21  4  0
 19 22  4  0
 20 28  1  0
 25 27  4  0
M  END
$$$$

 Created by Python create_sdf_string function

 28 30  0  0  0  0  0  0  0  0999 V2000
   11.4592   11.2893   18.7941 C   0  0  0  0  0  0  0  0  0  0  0  0
    3.4202    7.9009   20.3866 C   0  0  0  0  0  0  0  0  0  0  0  0
   13.5280   10.3522   19.3586 C   0  0  0  0  0  0  0  0  0  0  0  0
    9.6923    5.6468   22.7891 C   0  0  0  0  0  0  0  0  0  0  0  0
   11.7756   10.2554   20.8841 N   0  0  0  0  0  0  0  0  0  0  0  0
    8.9876   11.9370   19.8757 O   0  0  0  0  0  0  0  0  0  0  0  0
    6.0167    8.4478   21.1089 C   0  0  0  0  0  0  0  0  0  0  0  0
   11.0002   10.8890   20.0262 C   0  0  0  0  0  0  0  0  0  0  0  0
    2.1721    7.7393   20.0315 O   0  0  0  0  0  0  0  0  0  0  0  0
    9.1107   10.3880   21.3769 N   0  0  0  0  0  0  0  0  0  0  0  0
    3.9102    9.2008   20.3124 C   0  0  0  0  0  0  0  0  0  0  0  0
   12.7292   10.9960   18.4597 C   0  0  0  0  0  0  0  0  0  0  0  0
    9.3798    6.6793   23.6625 C   0  0  0  0  0  0  0  0  0  0  0  0
   14.7425   10.0739   19.0802 O   0  0  0  0  0  0  0  0  0  0  0  0
    5.1894    9.4673   20.7118 C   0  0  0  0  0  0  0  0  0  0  0  0
    7.3773    8.8224   21.4870 C   0  0  0  0  0  0  0  0  0  0  0  0
    8.4391    6.6439   21.0235 C   0  0  0  0  0  0  0  0  0  0  0  0
    9.6494   11.1353   20.4167 C   0  0  0  0  0  0  0  0  0  0  0  0
    8.1431    7.6829   21.9046 C   0  0  0  0  0  0  0  0  0  0  0  0
    7.7796   10.1314   21.5115 N   0  0  0  0  0  0  0  0  0  0  0  0
    9.2768    5.6183   21.4437 C   0  0  0  0  0  0  0  0  0  0  0  0
    8.6315    7.7322   23.1768 C   0  0  0  0  0  0  0  0  0  0  0  0
   13.0537    9.9821   20.5781 C   0  0  0  0  0  0  0  0  0  0  0  0
   10.3850    4.6575   23.2386 O   0  0  0  0  0  0  0  0  0  0  0  0
    4.2069    6.8450   20.7994 C   0  0  0  0  0  0  0  0  0  0  0  0
    3.0726   10.1043   19.8522 O   0  0  0  0  0  0  0  0  0  0  0  0
    5.5057    7.1196   21.1155 C   0  0  0  0  0  0  0  0  0  0  0  0
    7.0367   11.0229   21.9948 O   0  0  0  0  0  0  0  0  0  0  0  0
  1  8  4  0
  1 12  4  0
  2  9  1  0
  2 11  4  0
  2 25  4  0
  3 12  4  0
  3 14  1  0
  3 23  4  0
  4 13  4  0
  4 21  4  0
  4 24  1  0
  5  8  4  0
  5 23  4  0
  6 18  2  0
  7 15  4  0
  7 16  1  0
  7 27  4  0
  8 18  1  0
 10 18  1  0
 10 20  1  0
 11 15  4  0
 11 26  1  0
 13 22  4  0
 16 19  1  0
 16 20  2  0
 17 19  4  0
 17 21  4  0
 19 22  4  0
 20 28  1  0
 25 27  4  0
M  END
$$$$

 Created by Python create_sdf_string function

 28 30  0  0  0  0  0  0  0  0999 V2000
   11.4592   11.2893   18.7941 C   0  0  0  0  0  0  0  0  0  0  0  0
    3.4202    7.9009   20.3866 C   0  0  0  0  0  0  0  0  0  0  0  0
   13.5280   10.3522   19.3586 C   0  0  0  0  0  0  0  0  0  0  0  0
    9.6923    5.6468   22.7891 C   0  0  0  0  0  0  0  0  0  0  0  0
   11.7756   10.2554   20.8841 N   0  0  0  0  0  0  0  0  0  0  0  0
    8.9876   11.9370   19.8757 O   0  0  0  0  0  0  0  0  0  0  0  0
    6.0167    8.4478   21.1089 C   0  0  0  0  0  0  0  0  0  0  0  0
   11.0002   10.8890   20.0262 C   0  0  0  0  0  0  0  0  0  0  0  0
    2.1721    7.7393   20.0315 O   0  0  0  0  0  0  0  0  0  0  0  0
    9.1107   10.3880   21.3769 N   0  0  0  0  0  0  0  0  0  0  0  0
    3.9102    9.2008   20.3124 C   0  0  0  0  0  0  0  0  0  0  0  0
   12.7292   10.9960   18.4597 C   0  0  0  0  0  0  0  0  0  0  0  0
    9.3798    6.6793   23.6625 C   0  0  0  0  0  0  0  0  0  0  0  0
   14.7425   10.0739   19.0802 O   0  0  0  0  0  0  0  0  0  0  0  0
    5.1894    9.4673   20.7118 C   0  0  0  0  0  0  0  0  0  0  0  0
    7.3773    8.8224   21.4870 C   0  0  0  0  0  0  0  0  0  0  0  0
    8.4391    6.6439   21.0235 C   0  0  0  0  0  0  0  0  0  0  0  0
    9.6494   11.1353   20.4167 C   0  0  0  0  0  0  0  0  0  0  0  0
    8.1431    7.6829   21.9046 C   0  0  0  0  0  0  0  0  0  0  0  0
    7.7796   10.1314   21.5115 N   0  0  0  0  0  0  0  0  0  0  0  0
    9.2768    5.6183   21.4437 C   0  0  0  0  0  0  0  0  0  0  0  0
    8.6315    7.7322   23.1768 C   0  0  0  0  0  0  0  0  0  0  0  0
   13.0537    9.9821   20.5781 C   0  0  0  0  0  0  0  0  0  0  0  0
   10.3850    4.6575   23.2386 O   0  0  0  0  0  0  0  0  0  0  0  0
    4.2069    6.8450   20.7994 C   0  0  0  0  0  0  0  0  0  0  0  0
    3.0726   10.1043   19.8522 O   0  0  0  0  0  0  0  0  0  0  0  0
    5.5057    7.1196   21.1155 C   0  0  0  0  0  0  0  0  0  0  0  0
    7.0367   11.0229   21.9948 O   0  0  0  0  0  0  0  0  0  0  0  0
  1  8  4  0
  1 12  4  0
  2  9  1  0
  2 11  4  0
  2 25  4  0
  3 12  4  0
  3 14  1  0
  3 23  4  0
  4 13  4  0
  4 21  4  0
  4 24  1  0
  5  8  4  0
  5 23  4  0
  6 18  2  0
  7 15  4  0
  7 16  1  0
  7 27  4  0
  8 18  1  0
 10 18  1  0
 10 20  1  0
 11 15  4  0
 11 26  1  0
 13 22  4  0
 16 19  1  0
 16 20  2  0
 17 19  4  0
 17 21  4  0
 19 22  4  0
 20 28  1  0
 25 27  4  0
M  END
$$$$

 Created by Python create_sdf_string function

 28 30  0  0  0  0  0  0  0  0999 V2000
   11.4592   11.2893   18.7941 C   0  0  0  0  0  0  0  0  0  0  0  0
    3.4202    7.9009   20.3866 C   0  0  0  0  0  0  0  0  0  0  0  0
   13.5280   10.3522   19.3586 C   0  0  0  0  0  0  0  0  0  0  0  0
    9.6923    5.6468   22.7891 C   0  0  0  0  0  0  0  0  0  0  0  0
   11.7756   10.2554   20.8841 N   0  0  0  0  0  0  0  0  0  0  0  0
    8.9876   11.9370   19.8757 O   0  0  0  0  0  0  0  0  0  0  0  0
    6.0167    8.4478   21.1089 C   0  0  0  0  0  0  0  0  0  0  0  0
   11.0002   10.8890   20.0262 C   0  0  0  0  0  0  0  0  0  0  0  0
    2.1721    7.7393   20.0315 O   0  0  0  0  0  0  0  0  0  0  0  0
    9.1107   10.3880   21.3769 N   0  0  0  0  0  0  0  0  0  0  0  0
    3.9102    9.2008   20.3124 C   0  0  0  0  0  0  0  0  0  0  0  0
   12.7292   10.9960   18.4597 C   0  0  0  0  0  0  0  0  0  0  0  0
    9.3798    6.6793   23.6625 C   0  0  0  0  0  0  0  0  0  0  0  0
   14.7425   10.0739   19.0802 O   0  0  0  0  0  0  0  0  0  0  0  0
    5.1894    9.4673   20.7118 C   0  0  0  0  0  0  0  0  0  0  0  0
    7.3773    8.8224   21.4870 C   0  0  0  0  0  0  0  0  0  0  0  0
    8.4391    6.6439   21.0235 C   0  0  0  0  0  0  0  0  0  0  0  0
    9.6494   11.1353   20.4167 C   0  0  0  0  0  0  0  0  0  0  0  0
    8.1431    7.6829   21.9046 C   0  0  0  0  0  0  0  0  0  0  0  0
    7.7796   10.1314   21.5115 N   0  0  0  0  0  0  0  0  0  0  0  0
    9.2768    5.6183   21.4437 C   0  0  0  0  0  0  0  0  0  0  0  0
    8.6315    7.7322   23.1768 C   0  0  0  0  0  0  0  0  0  0  0  0
   13.0537    9.9821   20.5781 C   0  0  0  0  0  0  0  0  0  0  0  0
   10.3850    4.6575   23.2386 O   0  0  0  0  0  0  0  0  0  0  0  0
    4.2069    6.8450   20.7994 C   0  0  0  0  0  0  0  0  0  0  0  0
    3.0726   10.1043   19.8522 O   0  0  0  0  0  0  0  0  0  0  0  0
    5.5057    7.1196   21.1155 C   0  0  0  0  0  0  0  0  0  0  0  0
    7.0367   11.0229   21.9948 O   0  0  0  0  0  0  0  0  0  0  0  0
  1  8  4  0
  1 12  4  0
  2  9  1  0
  2 11  4  0
  2 25  4  0
  3 12  4  0
  3 14  1  0
  3 23  4  0
  4 13  4  0
  4 21  4  0
  4 24  1  0
  5  8  4  0
  5 23  4  0
  6 18  2  0
  7 15  4  0
  7 16  1  0
  7 27  4  0
  8 18  1  0
 10 18  1  0
 10 20  1  0
 11 15  4  0
 11 26  1  0
 13 22  4  0
 16 19  1  0
 16 20  2  0
 17 19  4  0
 17 21  4  0
 19 22  4  0
 20 28  1  0
 25 27  4  0
M  END
$$$$

 Created by Python create_sdf_string function

 28 30  0  0  0  0  0  0  0  0999 V2000
   11.4592   11.2893   18.7941 C   0  0  0  0  0  0  0  0  0  0  0  0
    3.4202    7.9009   20.3866 C   0  0  0  0  0  0  0  0  0  0  0  0
   13.5280   10.3522   19.3586 C   0  0  0  0  0  0  0  0  0  0  0  0
    9.6923    5.6468   22.7891 C   0  0  0  0  0  0  0  0  0  0  0  0
   11.7756   10.2554   20.8841 N   0  0  0  0  0  0  0  0  0  0  0  0
    8.9876   11.9370   19.8757 O   0  0  0  0  0  0  0  0  0  0  0  0
    6.0167    8.4478   21.1089 C   0  0  0  0  0  0  0  0  0  0  0  0
   11.0002   10.8890   20.0262 C   0  0  0  0  0  0  0  0  0  0  0  0
    2.1721    7.7393   20.0315 O   0  0  0  0  0  0  0  0  0  0  0  0
    9.1107   10.3880   21.3769 N   0  0  0  0  0  0  0  0  0  0  0  0
    3.9102    9.2008   20.3124 C   0  0  0  0  0  0  0  0  0  0  0  0
   12.7292   10.9960   18.4597 C   0  0  0  0  0  0  0  0  0  0  0  0
    9.3798    6.6793   23.6625 C   0  0  0  0  0  0  0  0  0  0  0  0
   14.7425   10.0739   19.0802 O   0  0  0  0  0  0  0  0  0  0  0  0
    5.1894    9.4673   20.7118 C   0  0  0  0  0  0  0  0  0  0  0  0
    7.3773    8.8224   21.4870 C   0  0  0  0  0  0  0  0  0  0  0  0
    8.4391    6.6439   21.0235 C   0  0  0  0  0  0  0  0  0  0  0  0
    9.6494   11.1353   20.4167 C   0  0  0  0  0  0  0  0  0  0  0  0
    8.1431    7.6829   21.9046 C   0  0  0  0  0  0  0  0  0  0  0  0
    7.7796   10.1314   21.5115 N   0  0  0  0  0  0  0  0  0  0  0  0
    9.2768    5.6183   21.4437 C   0  0  0  0  0  0  0  0  0  0  0  0
    8.6315    7.7322   23.1768 C   0  0  0  0  0  0  0  0  0  0  0  0
   13.0537    9.9821   20.5781 C   0  0  0  0  0  0  0  0  0  0  0  0
   10.3850    4.6575   23.2386 O   0  0  0  0  0  0  0  0  0  0  0  0
    4.2069    6.8450   20.7994 C   0  0  0  0  0  0  0  0  0  0  0  0
    3.0726   10.1043   19.8522 O   0  0  0  0  0  0  0  0  0  0  0  0
    5.5057    7.1196   21.1155 C   0  0  0  0  0  0  0  0  0  0  0  0
    7.0367   11.0229   21.9948 O   0  0  0  0  0  0  0  0  0  0  0  0
  1  8  4  0
  1 12  4  0
  2  9  1  0
  2 11  4  0
  2 25  4  0
  3 12  4  0
  3 14  1  0
  3 23  4  0
  4 13  4  0
  4 21  4  0
  4 24  1  0
  5  8  4  0
  5 23  4  0
  6 18  2  0
  7 15  4  0
  7 16  1  0
  7 27  4  0
  8 18  1  0
 10 18  1  0
 10 20  1  0
 11 15  4  0
 11 26  1  0
 13 22  4  0
 16 19  1  0
 16 20  2  0
 17 19  4  0
 17 21  4  0
 19 22  4  0
 20 28  1  0
 25 27  4  0
M  END
$$$$

 Created by Python create_sdf_string function

 28 30  0  0  0  0  0  0  0  0999 V2000
   11.4592   11.2893   18.7941 C   0  0  0  0  0  0  0  0  0  0  0  0
    3.4202    7.9009   20.3866 C   0  0  0  0  0  0  0  0  0  0  0  0
   13.5280   10.3522   19.3586 C   0  0  0  0  0  0  0  0  0  0  0  0
    9.6923    5.6468   22.7891 C   0  0  0  0  0  0  0  0  0  0  0  0
   11.7756   10.2554   20.8841 N   0  0  0  0  0  0  0  0  0  0  0  0
    8.9876   11.9370   19.8757 O   0  0  0  0  0  0  0  0  0  0  0  0
    6.0167    8.4478   21.1089 C   0  0  0  0  0  0  0  0  0  0  0  0
   11.0002   10.8890   20.0262 C   0  0  0  0  0  0  0  0  0  0  0  0
    2.1721    7.7393   20.0315 O   0  0  0  0  0  0  0  0  0  0  0  0
    9.1107   10.3880   21.3769 N   0  0  0  0  0  0  0  0  0  0  0  0
    3.9102    9.2008   20.3124 C   0  0  0  0  0  0  0  0  0  0  0  0
   12.7292   10.9960   18.4597 C   0  0  0  0  0  0  0  0  0  0  0  0
    9.3798    6.6793   23.6625 C   0  0  0  0  0  0  0  0  0  0  0  0
   14.7425   10.0739   19.0802 O   0  0  0  0  0  0  0  0  0  0  0  0
    5.1894    9.4673   20.7118 C   0  0  0  0  0  0  0  0  0  0  0  0
    7.3773    8.8224   21.4870 C   0  0  0  0  0  0  0  0  0  0  0  0
    8.4391    6.6439   21.0235 C   0  0  0  0  0  0  0  0  0  0  0  0
    9.6494   11.1353   20.4167 C   0  0  0  0  0  0  0  0  0  0  0  0
    8.1431    7.6829   21.9046 C   0  0  0  0  0  0  0  0  0  0  0  0
    7.7796   10.1314   21.5115 N   0  0  0  0  0  0  0  0  0  0  0  0
    9.2768    5.6183   21.4437 C   0  0  0  0  0  0  0  0  0  0  0  0
    8.6315    7.7322   23.1768 C   0  0  0  0  0  0  0  0  0  0  0  0
   13.0537    9.9821   20.5781 C   0  0  0  0  0  0  0  0  0  0  0  0
   10.3850    4.6575   23.2386 O   0  0  0  0  0  0  0  0  0  0  0  0
    4.2069    6.8450   20.7994 C   0  0  0  0  0  0  0  0  0  0  0  0
    3.0726   10.1043   19.8522 O   0  0  0  0  0  0  0  0  0  0  0  0
    5.5057    7.1196   21.1155 C   0  0  0  0  0  0  0  0  0  0  0  0
    7.0367   11.0229   21.9948 O   0  0  0  0  0  0  0  0  0  0  0  0
  1  8  4  0
  1 12  4  0
  2  9  1  0
  2 11  4  0
  2 25  4  0
  3 12  4  0
  3 14  1  0
  3 23  4  0
  4 13  4  0
  4 21  4  0
  4 24  1  0
  5  8  4  0
  5 23  4  0
  6 18  2  0
  7 15  4  0
  7 16  1  0
  7 27  4  0
  8 18  1  0
 10 18  1  0
 10 20  1  0
 11 15  4  0
 11 26  1  0
 13 22  4  0
 16 19  1  0
 16 20  2  0
 17 19  4  0
 17 21  4  0
 19 22  4  0
 20 28  1  0
 25 27  4  0
M  END
$$$$

 Created by Python create_sdf_string function

 28 30  0  0  0  0  0  0  0  0999 V2000
   11.4592   11.2893   18.7941 C   0  0  0  0  0  0  0  0  0  0  0  0
    3.4202    7.9009   20.3866 C   0  0  0  0  0  0  0  0  0  0  0  0
   13.5280   10.3522   19.3586 C   0  0  0  0  0  0  0  0  0  0  0  0
    9.6923    5.6468   22.7891 C   0  0  0  0  0  0  0  0  0  0  0  0
   11.7756   10.2554   20.8841 N   0  0  0  0  0  0  0  0  0  0  0  0
    8.9876   11.9370   19.8757 O   0  0  0  0  0  0  0  0  0  0  0  0
    6.0167    8.4478   21.1089 C   0  0  0  0  0  0  0  0  0  0  0  0
   11.0002   10.8890   20.0262 C   0  0  0  0  0  0  0  0  0  0  0  0
    2.1721    7.7393   20.0315 O   0  0  0  0  0  0  0  0  0  0  0  0
    9.1107   10.3880   21.3769 N   0  0  0  0  0  0  0  0  0  0  0  0
    3.9102    9.2008   20.3124 C   0  0  0  0  0  0  0  0  0  0  0  0
   12.7292   10.9960   18.4597 C   0  0  0  0  0  0  0  0  0  0  0  0
    9.3798    6.6793   23.6625 C   0  0  0  0  0  0  0  0  0  0  0  0
   14.7425   10.0739   19.0802 O   0  0  0  0  0  0  0  0  0  0  0  0
    5.1894    9.4673   20.7118 C   0  0  0  0  0  0  0  0  0  0  0  0
    7.3773    8.8224   21.4870 C   0  0  0  0  0  0  0  0  0  0  0  0
    8.4391    6.6439   21.0235 C   0  0  0  0  0  0  0  0  0  0  0  0
    9.6494   11.1353   20.4167 C   0  0  0  0  0  0  0  0  0  0  0  0
    8.1431    7.6829   21.9046 C   0  0  0  0  0  0  0  0  0  0  0  0
    7.7796   10.1314   21.5115 N   0  0  0  0  0  0  0  0  0  0  0  0
    9.2768    5.6183   21.4437 C   0  0  0  0  0  0  0  0  0  0  0  0
    8.6315    7.7322   23.1768 C   0  0  0  0  0  0  0  0  0  0  0  0
   13.0537    9.9821   20.5781 C   0  0  0  0  0  0  0  0  0  0  0  0
   10.3850    4.6575   23.2386 O   0  0  0  0  0  0  0  0  0  0  0  0
    4.2069    6.8450   20.7994 C   0  0  0  0  0  0  0  0  0  0  0  0
    3.0726   10.1043   19.8522 O   0  0  0  0  0  0  0  0  0  0  0  0
    5.5057    7.1196   21.1155 C   0  0  0  0  0  0  0  0  0  0  0  0
    7.0367   11.0229   21.9948 O   0  0  0  0  0  0  0  0  0  0  0  0
  1  8  4  0
  1 12  4  0
  2  9  1  0
  2 11  4  0
  2 25  4  0
  3 12  4  0
  3 14  1  0
  3 23  4  0
  4 13  4  0
  4 21  4  0
  4 24  1  0
  5  8  4  0
  5 23  4  0
  6 18  2  0
  7 15  4  0
  7 16  1  0
  7 27  4  0
  8 18  1  0
 10 18  1  0
 10 20  1  0
 11 15  4  0
 11 26  1  0
 13 22  4  0
 16 19  1  0
 16 20  2  0
 17 19  4  0
 17 21  4  0
 19 22  4  0
 20 28  1  0
 25 27  4  0
M  END
$$$$

 Created by Python create_sdf_string function

 28 30  0  0  0  0  0  0  0  0999 V2000
   11.4592   11.2893   18.7941 C   0  0  0  0  0  0  0  0  0  0  0  0
    3.4202    7.9009   20.3866 C   0  0  0  0  0  0  0  0  0  0  0  0
   13.5280   10.3522   19.3586 C   0  0  0  0  0  0  0  0  0  0  0  0
    9.6923    5.6468   22.7891 C   0  0  0  0  0  0  0  0  0  0  0  0
   11.7756   10.2554   20.8841 N   0  0  0  0  0  0  0  0  0  0  0  0
    8.9876   11.9370   19.8757 O   0  0  0  0  0  0  0  0  0  0  0  0
    6.0167    8.4478   21.1089 C   0  0  0  0  0  0  0  0  0  0  0  0
   11.0002   10.8890   20.0262 C   0  0  0  0  0  0  0  0  0  0  0  0
    2.1721    7.7393   20.0315 O   0  0  0  0  0  0  0  0  0  0  0  0
    9.1107   10.3880   21.3769 N   0  0  0  0  0  0  0  0  0  0  0  0
    3.9102    9.2008   20.3124 C   0  0  0  0  0  0  0  0  0  0  0  0
   12.7292   10.9960   18.4597 C   0  0  0  0  0  0  0  0  0  0  0  0
    9.3798    6.6793   23.6625 C   0  0  0  0  0  0  0  0  0  0  0  0
   14.7425   10.0739   19.0802 O   0  0  0  0  0  0  0  0  0  0  0  0
    5.1894    9.4673   20.7118 C   0  0  0  0  0  0  0  0  0  0  0  0
    7.3773    8.8224   21.4870 C   0  0  0  0  0  0  0  0  0  0  0  0
    8.4391    6.6439   21.0235 C   0  0  0  0  0  0  0  0  0  0  0  0
    9.6494   11.1353   20.4167 C   0  0  0  0  0  0  0  0  0  0  0  0
    8.1431    7.6829   21.9046 C   0  0  0  0  0  0  0  0  0  0  0  0
    7.7796   10.1314   21.5115 N   0  0  0  0  0  0  0  0  0  0  0  0
    9.2768    5.6183   21.4437 C   0  0  0  0  0  0  0  0  0  0  0  0
    8.6315    7.7322   23.1768 C   0  0  0  0  0  0  0  0  0  0  0  0
   13.0537    9.9821   20.5781 C   0  0  0  0  0  0  0  0  0  0  0  0
   10.3850    4.6575   23.2386 O   0  0  0  0  0  0  0  0  0  0  0  0
    4.2069    6.8450   20.7994 C   0  0  0  0  0  0  0  0  0  0  0  0
    3.0726   10.1043   19.8522 O   0  0  0  0  0  0  0  0  0  0  0  0
    5.5057    7.1196   21.1155 C   0  0  0  0  0  0  0  0  0  0  0  0
    7.0367   11.0229   21.9948 O   0  0  0  0  0  0  0  0  0  0  0  0
  1  8  4  0
  1 12  4  0
  2  9  1  0
  2 11  4  0
  2 25  4  0
  3 12  4  0
  3 14  1  0
  3 23  4  0
  4 13  4  0
  4 21  4  0
  4 24  1  0
  5  8  4  0
  5 23  4  0
  6 18  2  0
  7 15  4  0
  7 16  1  0
  7 27  4  0
  8 18  1  0
 10 18  1  0
 10 20  1  0
 11 15  4  0
 11 26  1  0
 13 22  4  0
 16 19  1  0
 16 20  2  0
 17 19  4  0
 17 21  4  0
 19 22  4  0
 20 28  1  0
 25 27  4  0
M  END
$$$$

 Created by Python create_sdf_string function

 28 30  0  0  0  0  0  0  0  0999 V2000
   11.4592   11.2893   18.7941 C   0  0  0  0  0  0  0  0  0  0  0  0
    3.4202    7.9009   20.3866 C   0  0  0  0  0  0  0  0  0  0  0  0
   13.5280   10.3522   19.3586 C   0  0  0  0  0  0  0  0  0  0  0  0
    9.6923    5.6468   22.7891 C   0  0  0  0  0  0  0  0  0  0  0  0
   11.7756   10.2554   20.8841 N   0  0  0  0  0  0  0  0  0  0  0  0
    8.9876   11.9370   19.8757 O   0  0  0  0  0  0  0  0  0  0  0  0
    6.0167    8.4478   21.1089 C   0  0  0  0  0  0  0  0  0  0  0  0
   11.0002   10.8890   20.0262 C   0  0  0  0  0  0  0  0  0  0  0  0
    2.1721    7.7393   20.0315 O   0  0  0  0  0  0  0  0  0  0  0  0
    9.1107   10.3880   21.3769 N   0  0  0  0  0  0  0  0  0  0  0  0
    3.9102    9.2008   20.3124 C   0  0  0  0  0  0  0  0  0  0  0  0
   12.7292   10.9960   18.4597 C   0  0  0  0  0  0  0  0  0  0  0  0
    9.3798    6.6793   23.6625 C   0  0  0  0  0  0  0  0  0  0  0  0
   14.7425   10.0739   19.0802 O   0  0  0  0  0  0  0  0  0  0  0  0
    5.1894    9.4673   20.7118 C   0  0  0  0  0  0  0  0  0  0  0  0
    7.3773    8.8224   21.4870 C   0  0  0  0  0  0  0  0  0  0  0  0
    8.4391    6.6439   21.0235 C   0  0  0  0  0  0  0  0  0  0  0  0
    9.6494   11.1353   20.4167 C   0  0  0  0  0  0  0  0  0  0  0  0
    8.1431    7.6829   21.9046 C   0  0  0  0  0  0  0  0  0  0  0  0
    7.7796   10.1314   21.5115 N   0  0  0  0  0  0  0  0  0  0  0  0
    9.2768    5.6183   21.4437 C   0  0  0  0  0  0  0  0  0  0  0  0
    8.6315    7.7322   23.1768 C   0  0  0  0  0  0  0  0  0  0  0  0
   13.0537    9.9821   20.5781 C   0  0  0  0  0  0  0  0  0  0  0  0
   10.3850    4.6575   23.2386 O   0  0  0  0  0  0  0  0  0  0  0  0
    4.2069    6.8450   20.7994 C   0  0  0  0  0  0  0  0  0  0  0  0
    3.0726   10.1043   19.8522 O   0  0  0  0  0  0  0  0  0  0  0  0
    5.5057    7.1196   21.1155 C   0  0  0  0  0  0  0  0  0  0  0  0
    7.0367   11.0229   21.9948 O   0  0  0  0  0  0  0  0  0  0  0  0
  1  8  4  0
  1 12  4  0
  2  9  1  0
  2 11  4  0
  2 25  4  0
  3 12  4  0
  3 14  1  0
  3 23  4  0
  4 13  4  0
  4 21  4  0
  4 24  1  0
  5  8  4  0
  5 23  4  0
  6 18  2  0
  7 15  4  0
  7 16  1  0
  7 27  4  0
  8 18  1  0
 10 18  1  0
 10 20  1  0
 11 15  4  0
 11 26  1  0
 13 22  4  0
 16 19  1  0
 16 20  2  0
 17 19  4  0
 17 21  4  0
 19 22  4  0
 20 28  1  0
 25 27  4  0
M  END
$$$$

 Created by Python create_sdf_string function

 28 30  0  0  0  0  0  0  0  0999 V2000
   11.4592   11.2893   18.7941 C   0  0  0  0  0  0  0  0  0  0  0  0
    3.4202    7.9009   20.3866 C   0  0  0  0  0  0  0  0  0  0  0  0
   13.5280   10.3522   19.3586 C   0  0  0  0  0  0  0  0  0  0  0  0
    9.6923    5.6468   22.7891 C   0  0  0  0  0  0  0  0  0  0  0  0
   11.7756   10.2554   20.8841 N   0  0  0  0  0  0  0  0  0  0  0  0
    8.9876   11.9370   19.8757 O   0  0  0  0  0  0  0  0  0  0  0  0
    6.0167    8.4478   21.1089 C   0  0  0  0  0  0  0  0  0  0  0  0
   11.0002   10.8890   20.0262 C   0  0  0  0  0  0  0  0  0  0  0  0
    2.1721    7.7393   20.0315 O   0  0  0  0  0  0  0  0  0  0  0  0
    9.1107   10.3880   21.3769 N   0  0  0  0  0  0  0  0  0  0  0  0
    3.9102    9.2008   20.3124 C   0  0  0  0  0  0  0  0  0  0  0  0
   12.7292   10.9960   18.4597 C   0  0  0  0  0  0  0  0  0  0  0  0
    9.3798    6.6793   23.6625 C   0  0  0  0  0  0  0  0  0  0  0  0
   14.7425   10.0739   19.0802 O   0  0  0  0  0  0  0  0  0  0  0  0
    5.1894    9.4673   20.7118 C   0  0  0  0  0  0  0  0  0  0  0  0
    7.3773    8.8224   21.4870 C   0  0  0  0  0  0  0  0  0  0  0  0
    8.4391    6.6439   21.0235 C   0  0  0  0  0  0  0  0  0  0  0  0
    9.6494   11.1353   20.4167 C   0  0  0  0  0  0  0  0  0  0  0  0
    8.1431    7.6829   21.9046 C   0  0  0  0  0  0  0  0  0  0  0  0
    7.7796   10.1314   21.5115 N   0  0  0  0  0  0  0  0  0  0  0  0
    9.2768    5.6183   21.4437 C   0  0  0  0  0  0  0  0  0  0  0  0
    8.6315    7.7322   23.1768 C   0  0  0  0  0  0  0  0  0  0  0  0
   13.0537    9.9821   20.5781 C   0  0  0  0  0  0  0  0  0  0  0  0
   10.3850    4.6575   23.2386 O   0  0  0  0  0  0  0  0  0  0  0  0
    4.2069    6.8450   20.7994 C   0  0  0  0  0  0  0  0  0  0  0  0
    3.0726   10.1043   19.8522 O   0  0  0  0  0  0  0  0  0  0  0  0
    5.5057    7.1196   21.1155 C   0  0  0  0  0  0  0  0  0  0  0  0
    7.0367   11.0229   21.9948 O   0  0  0  0  0  0  0  0  0  0  0  0
  1  8  4  0
  1 12  4  0
  2  9  1  0
  2 11  4  0
  2 25  4  0
  3 12  4  0
  3 14  1  0
  3 23  4  0
  4 13  4  0
  4 21  4  0
  4 24  1  0
  5  8  4  0
  5 23  4  0
  6 18  2  0
  7 15  4  0
  7 16  1  0
  7 27  4  0
  8 18  1  0
 10 18  1  0
 10 20  1  0
 11 15  4  0
 11 26  1  0
 13 22  4  0
 16 19  1  0
 16 20  2  0
 17 19  4  0
 17 21  4  0
 19 22  4  0
 20 28  1  0
 25 27  4  0
M  END
$$$$

 Created by Python create_sdf_string function

 28 30  0  0  0  0  0  0  0  0999 V2000
   11.4592   11.2893   18.7941 C   0  0  0  0  0  0  0  0  0  0  0  0
    3.4202    7.9009   20.3866 C   0  0  0  0  0  0  0  0  0  0  0  0
   13.5280   10.3522   19.3586 C   0  0  0  0  0  0  0  0  0  0  0  0
    9.6923    5.6468   22.7891 C   0  0  0  0  0  0  0  0  0  0  0  0
   11.7756   10.2554   20.8841 N   0  0  0  0  0  0  0  0  0  0  0  0
    8.9876   11.9370   19.8757 O   0  0  0  0  0  0  0  0  0  0  0  0
    6.0167    8.4478   21.1089 C   0  0  0  0  0  0  0  0  0  0  0  0
   11.0002   10.8890   20.0262 C   0  0  0  0  0  0  0  0  0  0  0  0
    2.1721    7.7393   20.0315 O   0  0  0  0  0  0  0  0  0  0  0  0
    9.1107   10.3880   21.3769 N   0  0  0  0  0  0  0  0  0  0  0  0
    3.9102    9.2008   20.3124 C   0  0  0  0  0  0  0  0  0  0  0  0
   12.7292   10.9960   18.4597 C   0  0  0  0  0  0  0  0  0  0  0  0
    9.3798    6.6793   23.6625 C   0  0  0  0  0  0  0  0  0  0  0  0
   14.7425   10.0739   19.0802 O   0  0  0  0  0  0  0  0  0  0  0  0
    5.1894    9.4673   20.7118 C   0  0  0  0  0  0  0  0  0  0  0  0
    7.3773    8.8224   21.4870 C   0  0  0  0  0  0  0  0  0  0  0  0
    8.4391    6.6439   21.0235 C   0  0  0  0  0  0  0  0  0  0  0  0
    9.6494   11.1353   20.4167 C   0  0  0  0  0  0  0  0  0  0  0  0
    8.1431    7.6829   21.9046 C   0  0  0  0  0  0  0  0  0  0  0  0
    7.7796   10.1314   21.5115 N   0  0  0  0  0  0  0  0  0  0  0  0
    9.2768    5.6183   21.4437 C   0  0  0  0  0  0  0  0  0  0  0  0
    8.6315    7.7322   23.1768 C   0  0  0  0  0  0  0  0  0  0  0  0
   13.0537    9.9821   20.5781 C   0  0  0  0  0  0  0  0  0  0  0  0
   10.3850    4.6575   23.2386 O   0  0  0  0  0  0  0  0  0  0  0  0
    4.2069    6.8450   20.7994 C   0  0  0  0  0  0  0  0  0  0  0  0
    3.0726   10.1043   19.8522 O   0  0  0  0  0  0  0  0  0  0  0  0
    5.5057    7.1196   21.1155 C   0  0  0  0  0  0  0  0  0  0  0  0
    7.0367   11.0229   21.9948 O   0  0  0  0  0  0  0  0  0  0  0  0
  1  8  4  0
  1 12  4  0
  2  9  1  0
  2 11  4  0
  2 25  4  0
  3 12  4  0
  3 14  1  0
  3 23  4  0
  4 13  4  0
  4 21  4  0
  4 24  1  0
  5  8  4  0
  5 23  4  0
  6 18  2  0
  7 15  4  0
  7 16  1  0
  7 27  4  0
  8 18  1  0
 10 18  1  0
 10 20  1  0
 11 15  4  0
 11 26  1  0
 13 22  4  0
 16 19  1  0
 16 20  2  0
 17 19  4  0
 17 21  4  0
 19 22  4  0
 20 28  1  0
 25 27  4  0
M  END
$$$$

 Created by Python create_sdf_string function

 28 30  0  0  0  0  0  0  0  0999 V2000
   11.4592   11.2893   18.7941 C   0  0  0  0  0  0  0  0  0  0  0  0
    3.4202    7.9009   20.3866 C   0  0  0  0  0  0  0  0  0  0  0  0
   13.5280   10.3522   19.3586 C   0  0  0  0  0  0  0  0  0  0  0  0
    9.6923    5.6468   22.7891 C   0  0  0  0  0  0  0  0  0  0  0  0
   11.7756   10.2554   20.8841 N   0  0  0  0  0  0  0  0  0  0  0  0
    8.9876   11.9370   19.8757 O   0  0  0  0  0  0  0  0  0  0  0  0
    6.0167    8.4478   21.1089 C   0  0  0  0  0  0  0  0  0  0  0  0
   11.0002   10.8890   20.0262 C   0  0  0  0  0  0  0  0  0  0  0  0
    2.1721    7.7393   20.0315 O   0  0  0  0  0  0  0  0  0  0  0  0
    9.1107   10.3880   21.3769 N   0  0  0  0  0  0  0  0  0  0  0  0
    3.9102    9.2008   20.3124 C   0  0  0  0  0  0  0  0  0  0  0  0
   12.7292   10.9960   18.4597 C   0  0  0  0  0  0  0  0  0  0  0  0
    9.3798    6.6793   23.6625 C   0  0  0  0  0  0  0  0  0  0  0  0
   14.7425   10.0739   19.0802 O   0  0  0  0  0  0  0  0  0  0  0  0
    5.1894    9.4673   20.7118 C   0  0  0  0  0  0  0  0  0  0  0  0
    7.3773    8.8224   21.4870 C   0  0  0  0  0  0  0  0  0  0  0  0
    8.4391    6.6439   21.0235 C   0  0  0  0  0  0  0  0  0  0  0  0
    9.6494   11.1353   20.4167 C   0  0  0  0  0  0  0  0  0  0  0  0
    8.1431    7.6829   21.9046 C   0  0  0  0  0  0  0  0  0  0  0  0
    7.7796   10.1314   21.5115 N   0  0  0  0  0  0  0  0  0  0  0  0
    9.2768    5.6183   21.4437 C   0  0  0  0  0  0  0  0  0  0  0  0
    8.6315    7.7322   23.1768 C   0  0  0  0  0  0  0  0  0  0  0  0
   13.0537    9.9821   20.5781 C   0  0  0  0  0  0  0  0  0  0  0  0
   10.3850    4.6575   23.2386 O   0  0  0  0  0  0  0  0  0  0  0  0
    4.2069    6.8450   20.7994 C   0  0  0  0  0  0  0  0  0  0  0  0
    3.0726   10.1043   19.8522 O   0  0  0  0  0  0  0  0  0  0  0  0
    5.5057    7.1196   21.1155 C   0  0  0  0  0  0  0  0  0  0  0  0
    7.0367   11.0229   21.9948 O   0  0  0  0  0  0  0  0  0  0  0  0
  1  8  4  0
  1 12  4  0
  2  9  1  0
  2 11  4  0
  2 25  4  0
  3 12  4  0
  3 14  1  0
  3 23  4  0
  4 13  4  0
  4 21  4  0
  4 24  1  0
  5  8  4  0
  5 23  4  0
  6 18  2  0
  7 15  4  0
  7 16  1  0
  7 27  4  0
  8 18  1  0
 10 18  1  0
 10 20  1  0
 11 15  4  0
 11 26  1  0
 13 22  4  0
 16 19  1  0
 16 20  2  0
 17 19  4  0
 17 21  4  0
 19 22  4  0
 20 28  1  0
 25 27  4  0
M  END
$$$$

 Created by Python create_sdf_string function

 28 30  0  0  0  0  0  0  0  0999 V2000
   11.4592   11.2893   18.7941 C   0  0  0  0  0  0  0  0  0  0  0  0
    3.4202    7.9009   20.3866 C   0  0  0  0  0  0  0  0  0  0  0  0
   13.5280   10.3522   19.3586 C   0  0  0  0  0  0  0  0  0  0  0  0
    9.6923    5.6468   22.7891 C   0  0  0  0  0  0  0  0  0  0  0  0
   11.7756   10.2554   20.8841 N   0  0  0  0  0  0  0  0  0  0  0  0
    8.9876   11.9370   19.8757 O   0  0  0  0  0  0  0  0  0  0  0  0
    6.0167    8.4478   21.1089 C   0  0  0  0  0  0  0  0  0  0  0  0
   11.0002   10.8890   20.0262 C   0  0  0  0  0  0  0  0  0  0  0  0
    2.1721    7.7393   20.0315 O   0  0  0  0  0  0  0  0  0  0  0  0
    9.1107   10.3880   21.3769 N   0  0  0  0  0  0  0  0  0  0  0  0
    3.9102    9.2008   20.3124 C   0  0  0  0  0  0  0  0  0  0  0  0
   12.7292   10.9960   18.4597 C   0  0  0  0  0  0  0  0  0  0  0  0
    9.3798    6.6793   23.6625 C   0  0  0  0  0  0  0  0  0  0  0  0
   14.7425   10.0739   19.0802 O   0  0  0  0  0  0  0  0  0  0  0  0
    5.1894    9.4673   20.7118 C   0  0  0  0  0  0  0  0  0  0  0  0
    7.3773    8.8224   21.4870 C   0  0  0  0  0  0  0  0  0  0  0  0
    8.4391    6.6439   21.0235 C   0  0  0  0  0  0  0  0  0  0  0  0
    9.6494   11.1353   20.4167 C   0  0  0  0  0  0  0  0  0  0  0  0
    8.1431    7.6829   21.9046 C   0  0  0  0  0  0  0  0  0  0  0  0
    7.7796   10.1314   21.5115 N   0  0  0  0  0  0  0  0  0  0  0  0
    9.2768    5.6183   21.4437 C   0  0  0  0  0  0  0  0  0  0  0  0
    8.6315    7.7322   23.1768 C   0  0  0  0  0  0  0  0  0  0  0  0
   13.0537    9.9821   20.5781 C   0  0  0  0  0  0  0  0  0  0  0  0
   10.3850    4.6575   23.2386 O   0  0  0  0  0  0  0  0  0  0  0  0
    4.2069    6.8450   20.7994 C   0  0  0  0  0  0  0  0  0  0  0  0
    3.0726   10.1043   19.8522 O   0  0  0  0  0  0  0  0  0  0  0  0
    5.5057    7.1196   21.1155 C   0  0  0  0  0  0  0  0  0  0  0  0
    7.0367   11.0229   21.9948 O   0  0  0  0  0  0  0  0  0  0  0  0
  1  8  4  0
  1 12  4  0
  2  9  1  0
  2 11  4  0
  2 25  4  0
  3 12  4  0
  3 14  1  0
  3 23  4  0
  4 13  4  0
  4 21  4  0
  4 24  1  0
  5  8  4  0
  5 23  4  0
  6 18  2  0
  7 15  4  0
  7 16  1  0
  7 27  4  0
  8 18  1  0
 10 18  1  0
 10 20  1  0
 11 15  4  0
 11 26  1  0
 13 22  4  0
 16 19  1  0
 16 20  2  0
 17 19  4  0
 17 21  4  0
 19 22  4  0
 20 28  1  0
 25 27  4  0
M  END
$$$$

 Created by Python create_sdf_string function

 28 30  0  0  0  0  0  0  0  0999 V2000
   11.4592   11.2893   18.7941 C   0  0  0  0  0  0  0  0  0  0  0  0
    3.4202    7.9009   20.3866 C   0  0  0  0  0  0  0  0  0  0  0  0
   13.5280   10.3522   19.3586 C   0  0  0  0  0  0  0  0  0  0  0  0
    9.6923    5.6468   22.7891 C   0  0  0  0  0  0  0  0  0  0  0  0
   11.7756   10.2554   20.8841 N   0  0  0  0  0  0  0  0  0  0  0  0
    8.9876   11.9370   19.8757 O   0  0  0  0  0  0  0  0  0  0  0  0
    6.0167    8.4478   21.1089 C   0  0  0  0  0  0  0  0  0  0  0  0
   11.0002   10.8890   20.0262 C   0  0  0  0  0  0  0  0  0  0  0  0
    2.1721    7.7393   20.0315 O   0  0  0  0  0  0  0  0  0  0  0  0
    9.1107   10.3880   21.3769 N   0  0  0  0  0  0  0  0  0  0  0  0
    3.9102    9.2008   20.3124 C   0  0  0  0  0  0  0  0  0  0  0  0
   12.7292   10.9960   18.4597 C   0  0  0  0  0  0  0  0  0  0  0  0
    9.3798    6.6793   23.6625 C   0  0  0  0  0  0  0  0  0  0  0  0
   14.7425   10.0739   19.0802 O   0  0  0  0  0  0  0  0  0  0  0  0
    5.1894    9.4673   20.7118 C   0  0  0  0  0  0  0  0  0  0  0  0
    7.3773    8.8224   21.4870 C   0  0  0  0  0  0  0  0  0  0  0  0
    8.4391    6.6439   21.0235 C   0  0  0  0  0  0  0  0  0  0  0  0
    9.6494   11.1353   20.4167 C   0  0  0  0  0  0  0  0  0  0  0  0
    8.1431    7.6829   21.9046 C   0  0  0  0  0  0  0  0  0  0  0  0
    7.7796   10.1314   21.5115 N   0  0  0  0  0  0  0  0  0  0  0  0
    9.2768    5.6183   21.4437 C   0  0  0  0  0  0  0  0  0  0  0  0
    8.6315    7.7322   23.1768 C   0  0  0  0  0  0  0  0  0  0  0  0
   13.0537    9.9821   20.5781 C   0  0  0  0  0  0  0  0  0  0  0  0
   10.3850    4.6575   23.2386 O   0  0  0  0  0  0  0  0  0  0  0  0
    4.2069    6.8450   20.7994 C   0  0  0  0  0  0  0  0  0  0  0  0
    3.0726   10.1043   19.8522 O   0  0  0  0  0  0  0  0  0  0  0  0
    5.5057    7.1196   21.1155 C   0  0  0  0  0  0  0  0  0  0  0  0
    7.0367   11.0229   21.9948 O   0  0  0  0  0  0  0  0  0  0  0  0
  1  8  4  0
  1 12  4  0
  2  9  1  0
  2 11  4  0
  2 25  4  0
  3 12  4  0
  3 14  1  0
  3 23  4  0
  4 13  4  0
  4 21  4  0
  4 24  1  0
  5  8  4  0
  5 23  4  0
  6 18  2  0
  7 15  4  0
  7 16  1  0
  7 27  4  0
  8 18  1  0
 10 18  1  0
 10 20  1  0
 11 15  4  0
 11 26  1  0
 13 22  4  0
 16 19  1  0
 16 20  2  0
 17 19  4  0
 17 21  4  0
 19 22  4  0
 20 28  1  0
 25 27  4  0
M  END
$$$$

 Created by Python create_sdf_string function

 28 30  0  0  0  0  0  0  0  0999 V2000
   11.4592   11.2893   18.7941 C   0  0  0  0  0  0  0  0  0  0  0  0
    3.4202    7.9009   20.3866 C   0  0  0  0  0  0  0  0  0  0  0  0
   13.5280   10.3522   19.3586 C   0  0  0  0  0  0  0  0  0  0  0  0
    9.6923    5.6468   22.7891 C   0  0  0  0  0  0  0  0  0  0  0  0
   11.7756   10.2554   20.8841 N   0  0  0  0  0  0  0  0  0  0  0  0
    8.9876   11.9370   19.8757 O   0  0  0  0  0  0  0  0  0  0  0  0
    6.0167    8.4478   21.1089 C   0  0  0  0  0  0  0  0  0  0  0  0
   11.0002   10.8890   20.0262 C   0  0  0  0  0  0  0  0  0  0  0  0
    2.1721    7.7393   20.0315 O   0  0  0  0  0  0  0  0  0  0  0  0
    9.1107   10.3880   21.3769 N   0  0  0  0  0  0  0  0  0  0  0  0
    3.9102    9.2008   20.3124 C   0  0  0  0  0  0  0  0  0  0  0  0
   12.7292   10.9960   18.4597 C   0  0  0  0  0  0  0  0  0  0  0  0
    9.3798    6.6793   23.6625 C   0  0  0  0  0  0  0  0  0  0  0  0
   14.7425   10.0739   19.0802 O   0  0  0  0  0  0  0  0  0  0  0  0
    5.1894    9.4673   20.7118 C   0  0  0  0  0  0  0  0  0  0  0  0
    7.3773    8.8224   21.4870 C   0  0  0  0  0  0  0  0  0  0  0  0
    8.4391    6.6439   21.0235 C   0  0  0  0  0  0  0  0  0  0  0  0
    9.6494   11.1353   20.4167 C   0  0  0  0  0  0  0  0  0  0  0  0
    8.1431    7.6829   21.9046 C   0  0  0  0  0  0  0  0  0  0  0  0
    7.7796   10.1314   21.5115 N   0  0  0  0  0  0  0  0  0  0  0  0
    9.2768    5.6183   21.4437 C   0  0  0  0  0  0  0  0  0  0  0  0
    8.6315    7.7322   23.1768 C   0  0  0  0  0  0  0  0  0  0  0  0
   13.0537    9.9821   20.5781 C   0  0  0  0  0  0  0  0  0  0  0  0
   10.3850    4.6575   23.2386 O   0  0  0  0  0  0  0  0  0  0  0  0
    4.2069    6.8450   20.7994 C   0  0  0  0  0  0  0  0  0  0  0  0
    3.0726   10.1043   19.8522 O   0  0  0  0  0  0  0  0  0  0  0  0
    5.5057    7.1196   21.1155 C   0  0  0  0  0  0  0  0  0  0  0  0
    7.0367   11.0229   21.9948 O   0  0  0  0  0  0  0  0  0  0  0  0
  1  8  4  0
  1 12  4  0
  2  9  1  0
  2 11  4  0
  2 25  4  0
  3 12  4  0
  3 14  1  0
  3 23  4  0
  4 13  4  0
  4 21  4  0
  4 24  1  0
  5  8  4  0
  5 23  4  0
  6 18  2  0
  7 15  4  0
  7 16  1  0
  7 27  4  0
  8 18  1  0
 10 18  1  0
 10 20  1  0
 11 15  4  0
 11 26  1  0
 13 22  4  0
 16 19  1  0
 16 20  2  0
 17 19  4  0
 17 21  4  0
 19 22  4  0
 20 28  1  0
 25 27  4  0
M  END
$$$$

 Created by Python create_sdf_string function

 28 30  0  0  0  0  0  0  0  0999 V2000
   11.4592   11.2893   18.7941 C   0  0  0  0  0  0  0  0  0  0  0  0
    3.4202    7.9009   20.3866 C   0  0  0  0  0  0  0  0  0  0  0  0
   13.5280   10.3522   19.3586 C   0  0  0  0  0  0  0  0  0  0  0  0
    9.6923    5.6468   22.7891 C   0  0  0  0  0  0  0  0  0  0  0  0
   11.7756   10.2554   20.8841 N   0  0  0  0  0  0  0  0  0  0  0  0
    8.9876   11.9370   19.8757 O   0  0  0  0  0  0  0  0  0  0  0  0
    6.0167    8.4478   21.1089 C   0  0  0  0  0  0  0  0  0  0  0  0
   11.0002   10.8890   20.0262 C   0  0  0  0  0  0  0  0  0  0  0  0
    2.1721    7.7393   20.0315 O   0  0  0  0  0  0  0  0  0  0  0  0
    9.1107   10.3880   21.3769 N   0  0  0  0  0  0  0  0  0  0  0  0
    3.9102    9.2008   20.3124 C   0  0  0  0  0  0  0  0  0  0  0  0
   12.7292   10.9960   18.4597 C   0  0  0  0  0  0  0  0  0  0  0  0
    9.3798    6.6793   23.6625 C   0  0  0  0  0  0  0  0  0  0  0  0
   14.7425   10.0739   19.0802 O   0  0  0  0  0  0  0  0  0  0  0  0
    5.1894    9.4673   20.7118 C   0  0  0  0  0  0  0  0  0  0  0  0
    7.3773    8.8224   21.4870 C   0  0  0  0  0  0  0  0  0  0  0  0
    8.4391    6.6439   21.0235 C   0  0  0  0  0  0  0  0  0  0  0  0
    9.6494   11.1353   20.4167 C   0  0  0  0  0  0  0  0  0  0  0  0
    8.1431    7.6829   21.9046 C   0  0  0  0  0  0  0  0  0  0  0  0
    7.7796   10.1314   21.5115 N   0  0  0  0  0  0  0  0  0  0  0  0
    9.2768    5.6183   21.4437 C   0  0  0  0  0  0  0  0  0  0  0  0
    8.6315    7.7322   23.1768 C   0  0  0  0  0  0  0  0  0  0  0  0
   13.0537    9.9821   20.5781 C   0  0  0  0  0  0  0  0  0  0  0  0
   10.3850    4.6575   23.2386 O   0  0  0  0  0  0  0  0  0  0  0  0
    4.2069    6.8450   20.7994 C   0  0  0  0  0  0  0  0  0  0  0  0
    3.0726   10.1043   19.8522 O   0  0  0  0  0  0  0  0  0  0  0  0
    5.5057    7.1196   21.1155 C   0  0  0  0  0  0  0  0  0  0  0  0
    7.0367   11.0229   21.9948 O   0  0  0  0  0  0  0  0  0  0  0  0
  1  8  4  0
  1 12  4  0
  2  9  1  0
  2 11  4  0
  2 25  4  0
  3 12  4  0
  3 14  1  0
  3 23  4  0
  4 13  4  0
  4 21  4  0
  4 24  1  0
  5  8  4  0
  5 23  4  0
  6 18  2  0
  7 15  4  0
  7 16  1  0
  7 27  4  0
  8 18  1  0
 10 18  1  0
 10 20  1  0
 11 15  4  0
 11 26  1  0
 13 22  4  0
 16 19  1  0
 16 20  2  0
 17 19  4  0
 17 21  4  0
 19 22  4  0
 20 28  1  0
 25 27  4  0
M  END
$$$$

 Created by Python create_sdf_string function

 28 30  0  0  0  0  0  0  0  0999 V2000
   11.4592   11.2893   18.7941 C   0  0  0  0  0  0  0  0  0  0  0  0
    3.4202    7.9009   20.3866 C   0  0  0  0  0  0  0  0  0  0  0  0
   13.5280   10.3522   19.3586 C   0  0  0  0  0  0  0  0  0  0  0  0
    9.6923    5.6468   22.7891 C   0  0  0  0  0  0  0  0  0  0  0  0
   11.7756   10.2554   20.8841 N   0  0  0  0  0  0  0  0  0  0  0  0
    8.9876   11.9370   19.8757 O   0  0  0  0  0  0  0  0  0  0  0  0
    6.0167    8.4478   21.1089 C   0  0  0  0  0  0  0  0  0  0  0  0
   11.0002   10.8890   20.0262 C   0  0  0  0  0  0  0  0  0  0  0  0
    2.1721    7.7393   20.0315 O   0  0  0  0  0  0  0  0  0  0  0  0
    9.1107   10.3880   21.3769 N   0  0  0  0  0  0  0  0  0  0  0  0
    3.9102    9.2008   20.3124 C   0  0  0  0  0  0  0  0  0  0  0  0
   12.7292   10.9960   18.4597 C   0  0  0  0  0  0  0  0  0  0  0  0
    9.3798    6.6793   23.6625 C   0  0  0  0  0  0  0  0  0  0  0  0
   14.7425   10.0739   19.0802 O   0  0  0  0  0  0  0  0  0  0  0  0
    5.1894    9.4673   20.7118 C   0  0  0  0  0  0  0  0  0  0  0  0
    7.3773    8.8224   21.4870 C   0  0  0  0  0  0  0  0  0  0  0  0
    8.4391    6.6439   21.0235 C   0  0  0  0  0  0  0  0  0  0  0  0
    9.6494   11.1353   20.4167 C   0  0  0  0  0  0  0  0  0  0  0  0
    8.1431    7.6829   21.9046 C   0  0  0  0  0  0  0  0  0  0  0  0
    7.7796   10.1314   21.5115 N   0  0  0  0  0  0  0  0  0  0  0  0
    9.2768    5.6183   21.4437 C   0  0  0  0  0  0  0  0  0  0  0  0
    8.6315    7.7322   23.1768 C   0  0  0  0  0  0  0  0  0  0  0  0
   13.0537    9.9821   20.5781 C   0  0  0  0  0  0  0  0  0  0  0  0
   10.3850    4.6575   23.2386 O   0  0  0  0  0  0  0  0  0  0  0  0
    4.2069    6.8450   20.7994 C   0  0  0  0  0  0  0  0  0  0  0  0
    3.0726   10.1043   19.8522 O   0  0  0  0  0  0  0  0  0  0  0  0
    5.5057    7.1196   21.1155 C   0  0  0  0  0  0  0  0  0  0  0  0
    7.0367   11.0229   21.9948 O   0  0  0  0  0  0  0  0  0  0  0  0
  1  8  4  0
  1 12  4  0
  2  9  1  0
  2 11  4  0
  2 25  4  0
  3 12  4  0
  3 14  1  0
  3 23  4  0
  4 13  4  0
  4 21  4  0
  4 24  1  0
  5  8  4  0
  5 23  4  0
  6 18  2  0
  7 15  4  0
  7 16  1  0
  7 27  4  0
  8 18  1  0
 10 18  1  0
 10 20  1  0
 11 15  4  0
 11 26  1  0
 13 22  4  0
 16 19  1  0
 16 20  2  0
 17 19  4  0
 17 21  4  0
 19 22  4  0
 20 28  1  0
 25 27  4  0
M  END
$$$$

 Created by Python create_sdf_string function

 28 30  0  0  0  0  0  0  0  0999 V2000
   11.4592   11.2893   18.7941 C   0  0  0  0  0  0  0  0  0  0  0  0
    3.4202    7.9009   20.3866 C   0  0  0  0  0  0  0  0  0  0  0  0
   13.5280   10.3522   19.3586 C   0  0  0  0  0  0  0  0  0  0  0  0
    9.6923    5.6468   22.7891 C   0  0  0  0  0  0  0  0  0  0  0  0
   11.7756   10.2554   20.8841 N   0  0  0  0  0  0  0  0  0  0  0  0
    8.9876   11.9370   19.8757 O   0  0  0  0  0  0  0  0  0  0  0  0
    6.0167    8.4478   21.1089 C   0  0  0  0  0  0  0  0  0  0  0  0
   11.0002   10.8890   20.0262 C   0  0  0  0  0  0  0  0  0  0  0  0
    2.1721    7.7393   20.0315 O   0  0  0  0  0  0  0  0  0  0  0  0
    9.1107   10.3880   21.3769 N   0  0  0  0  0  0  0  0  0  0  0  0
    3.9102    9.2008   20.3124 C   0  0  0  0  0  0  0  0  0  0  0  0
   12.7292   10.9960   18.4597 C   0  0  0  0  0  0  0  0  0  0  0  0
    9.3798    6.6793   23.6625 C   0  0  0  0  0  0  0  0  0  0  0  0
   14.7425   10.0739   19.0802 O   0  0  0  0  0  0  0  0  0  0  0  0
    5.1894    9.4673   20.7118 C   0  0  0  0  0  0  0  0  0  0  0  0
    7.3773    8.8224   21.4870 C   0  0  0  0  0  0  0  0  0  0  0  0
    8.4391    6.6439   21.0235 C   0  0  0  0  0  0  0  0  0  0  0  0
    9.6494   11.1353   20.4167 C   0  0  0  0  0  0  0  0  0  0  0  0
    8.1431    7.6829   21.9046 C   0  0  0  0  0  0  0  0  0  0  0  0
    7.7796   10.1314   21.5115 N   0  0  0  0  0  0  0  0  0  0  0  0
    9.2768    5.6183   21.4437 C   0  0  0  0  0  0  0  0  0  0  0  0
    8.6315    7.7322   23.1768 C   0  0  0  0  0  0  0  0  0  0  0  0
   13.0537    9.9821   20.5781 C   0  0  0  0  0  0  0  0  0  0  0  0
   10.3850    4.6575   23.2386 O   0  0  0  0  0  0  0  0  0  0  0  0
    4.2069    6.8450   20.7994 C   0  0  0  0  0  0  0  0  0  0  0  0
    3.0726   10.1043   19.8522 O   0  0  0  0  0  0  0  0  0  0  0  0
    5.5057    7.1196   21.1155 C   0  0  0  0  0  0  0  0  0  0  0  0
    7.0367   11.0229   21.9948 O   0  0  0  0  0  0  0  0  0  0  0  0
  1  8  4  0
  1 12  4  0
  2  9  1  0
  2 11  4  0
  2 25  4  0
  3 12  4  0
  3 14  1  0
  3 23  4  0
  4 13  4  0
  4 21  4  0
  4 24  1  0
  5  8  4  0
  5 23  4  0
  6 18  2  0
  7 15  4  0
  7 16  1  0
  7 27  4  0
  8 18  1  0
 10 18  1  0
 10 20  1  0
 11 15  4  0
 11 26  1  0
 13 22  4  0
 16 19  1  0
 16 20  2  0
 17 19  4  0
 17 21  4  0
 19 22  4  0
 20 28  1  0
 25 27  4  0
M  END
$$$$

 Created by Python create_sdf_string function

 28 30  0  0  0  0  0  0  0  0999 V2000
   11.4592   11.2893   18.7941 C   0  0  0  0  0  0  0  0  0  0  0  0
    3.4202    7.9009   20.3866 C   0  0  0  0  0  0  0  0  0  0  0  0
   13.5280   10.3522   19.3586 C   0  0  0  0  0  0  0  0  0  0  0  0
    9.6923    5.6468   22.7891 C   0  0  0  0  0  0  0  0  0  0  0  0
   11.7756   10.2554   20.8841 N   0  0  0  0  0  0  0  0  0  0  0  0
    8.9876   11.9370   19.8757 O   0  0  0  0  0  0  0  0  0  0  0  0
    6.0167    8.4478   21.1089 C   0  0  0  0  0  0  0  0  0  0  0  0
   11.0002   10.8890   20.0262 C   0  0  0  0  0  0  0  0  0  0  0  0
    2.1721    7.7393   20.0315 O   0  0  0  0  0  0  0  0  0  0  0  0
    9.1107   10.3880   21.3769 N   0  0  0  0  0  0  0  0  0  0  0  0
    3.9102    9.2008   20.3124 C   0  0  0  0  0  0  0  0  0  0  0  0
   12.7292   10.9960   18.4597 C   0  0  0  0  0  0  0  0  0  0  0  0
    9.3798    6.6793   23.6625 C   0  0  0  0  0  0  0  0  0  0  0  0
   14.7425   10.0739   19.0802 O   0  0  0  0  0  0  0  0  0  0  0  0
    5.1894    9.4673   20.7118 C   0  0  0  0  0  0  0  0  0  0  0  0
    7.3773    8.8224   21.4870 C   0  0  0  0  0  0  0  0  0  0  0  0
    8.4391    6.6439   21.0235 C   0  0  0  0  0  0  0  0  0  0  0  0
    9.6494   11.1353   20.4167 C   0  0  0  0  0  0  0  0  0  0  0  0
    8.1431    7.6829   21.9046 C   0  0  0  0  0  0  0  0  0  0  0  0
    7.7796   10.1314   21.5115 N   0  0  0  0  0  0  0  0  0  0  0  0
    9.2768    5.6183   21.4437 C   0  0  0  0  0  0  0  0  0  0  0  0
    8.6315    7.7322   23.1768 C   0  0  0  0  0  0  0  0  0  0  0  0
   13.0537    9.9821   20.5781 C   0  0  0  0  0  0  0  0  0  0  0  0
   10.3850    4.6575   23.2386 O   0  0  0  0  0  0  0  0  0  0  0  0
    4.2069    6.8450   20.7994 C   0  0  0  0  0  0  0  0  0  0  0  0
    3.0726   10.1043   19.8522 O   0  0  0  0  0  0  0  0  0  0  0  0
    5.5057    7.1196   21.1155 C   0  0  0  0  0  0  0  0  0  0  0  0
    7.0367   11.0229   21.9948 O   0  0  0  0  0  0  0  0  0  0  0  0
  1  8  4  0
  1 12  4  0
  2  9  1  0
  2 11  4  0
  2 25  4  0
  3 12  4  0
  3 14  1  0
  3 23  4  0
  4 13  4  0
  4 21  4  0
  4 24  1  0
  5  8  4  0
  5 23  4  0
  6 18  2  0
  7 15  4  0
  7 16  1  0
  7 27  4  0
  8 18  1  0
 10 18  1  0
 10 20  1  0
 11 15  4  0
 11 26  1  0
 13 22  4  0
 16 19  1  0
 16 20  2  0
 17 19  4  0
 17 21  4  0
 19 22  4  0
 20 28  1  0
 25 27  4  0
M  END
$$$$

 Created by Python create_sdf_string function

 28 30  0  0  0  0  0  0  0  0999 V2000
   11.4592   11.2893   18.7941 C   0  0  0  0  0  0  0  0  0  0  0  0
    3.4202    7.9009   20.3866 C   0  0  0  0  0  0  0  0  0  0  0  0
   13.5280   10.3522   19.3586 C   0  0  0  0  0  0  0  0  0  0  0  0
    9.6923    5.6468   22.7891 C   0  0  0  0  0  0  0  0  0  0  0  0
   11.7756   10.2554   20.8841 N   0  0  0  0  0  0  0  0  0  0  0  0
    8.9876   11.9370   19.8757 O   0  0  0  0  0  0  0  0  0  0  0  0
    6.0167    8.4478   21.1089 C   0  0  0  0  0  0  0  0  0  0  0  0
   11.0002   10.8890   20.0262 C   0  0  0  0  0  0  0  0  0  0  0  0
    2.1721    7.7393   20.0315 O   0  0  0  0  0  0  0  0  0  0  0  0
    9.1107   10.3880   21.3769 N   0  0  0  0  0  0  0  0  0  0  0  0
    3.9102    9.2008   20.3124 C   0  0  0  0  0  0  0  0  0  0  0  0
   12.7292   10.9960   18.4597 C   0  0  0  0  0  0  0  0  0  0  0  0
    9.3798    6.6793   23.6625 C   0  0  0  0  0  0  0  0  0  0  0  0
   14.7425   10.0739   19.0802 O   0  0  0  0  0  0  0  0  0  0  0  0
    5.1894    9.4673   20.7118 C   0  0  0  0  0  0  0  0  0  0  0  0
    7.3773    8.8224   21.4870 C   0  0  0  0  0  0  0  0  0  0  0  0
    8.4391    6.6439   21.0235 C   0  0  0  0  0  0  0  0  0  0  0  0
    9.6494   11.1353   20.4167 C   0  0  0  0  0  0  0  0  0  0  0  0
    8.1431    7.6829   21.9046 C   0  0  0  0  0  0  0  0  0  0  0  0
    7.7796   10.1314   21.5115 N   0  0  0  0  0  0  0  0  0  0  0  0
    9.2768    5.6183   21.4437 C   0  0  0  0  0  0  0  0  0  0  0  0
    8.6315    7.7322   23.1768 C   0  0  0  0  0  0  0  0  0  0  0  0
   13.0537    9.9821   20.5781 C   0  0  0  0  0  0  0  0  0  0  0  0
   10.3850    4.6575   23.2386 O   0  0  0  0  0  0  0  0  0  0  0  0
    4.2069    6.8450   20.7994 C   0  0  0  0  0  0  0  0  0  0  0  0
    3.0726   10.1043   19.8522 O   0  0  0  0  0  0  0  0  0  0  0  0
    5.5057    7.1196   21.1155 C   0  0  0  0  0  0  0  0  0  0  0  0
    7.0367   11.0229   21.9948 O   0  0  0  0  0  0  0  0  0  0  0  0
  1  8  4  0
  1 12  4  0
  2  9  1  0
  2 11  4  0
  2 25  4  0
  3 12  4  0
  3 14  1  0
  3 23  4  0
  4 13  4  0
  4 21  4  0
  4 24  1  0
  5  8  4  0
  5 23  4  0
  6 18  2  0
  7 15  4  0
  7 16  1  0
  7 27  4  0
  8 18  1  0
 10 18  1  0
 10 20  1  0
 11 15  4  0
 11 26  1  0
 13 22  4  0
 16 19  1  0
 16 20  2  0
 17 19  4  0
 17 21  4  0
 19 22  4  0
 20 28  1  0
 25 27  4  0
M  END
$$$$

 Created by Python create_sdf_string function

 28 30  0  0  0  0  0  0  0  0999 V2000
   11.4592   11.2893   18.7941 C   0  0  0  0  0  0  0  0  0  0  0  0
    3.4202    7.9009   20.3866 C   0  0  0  0  0  0  0  0  0  0  0  0
   13.5280   10.3522   19.3586 C   0  0  0  0  0  0  0  0  0  0  0  0
    9.6923    5.6468   22.7891 C   0  0  0  0  0  0  0  0  0  0  0  0
   11.7756   10.2554   20.8841 N   0  0  0  0  0  0  0  0  0  0  0  0
    8.9876   11.9370   19.8757 O   0  0  0  0  0  0  0  0  0  0  0  0
    6.0167    8.4478   21.1089 C   0  0  0  0  0  0  0  0  0  0  0  0
   11.0002   10.8890   20.0262 C   0  0  0  0  0  0  0  0  0  0  0  0
    2.1721    7.7393   20.0315 O   0  0  0  0  0  0  0  0  0  0  0  0
    9.1107   10.3880   21.3769 N   0  0  0  0  0  0  0  0  0  0  0  0
    3.9102    9.2008   20.3124 C   0  0  0  0  0  0  0  0  0  0  0  0
   12.7292   10.9960   18.4597 C   0  0  0  0  0  0  0  0  0  0  0  0
    9.3798    6.6793   23.6625 C   0  0  0  0  0  0  0  0  0  0  0  0
   14.7425   10.0739   19.0802 O   0  0  0  0  0  0  0  0  0  0  0  0
    5.1894    9.4673   20.7118 C   0  0  0  0  0  0  0  0  0  0  0  0
    7.3773    8.8224   21.4870 C   0  0  0  0  0  0  0  0  0  0  0  0
    8.4391    6.6439   21.0235 C   0  0  0  0  0  0  0  0  0  0  0  0
    9.6494   11.1353   20.4167 C   0  0  0  0  0  0  0  0  0  0  0  0
    8.1431    7.6829   21.9046 C   0  0  0  0  0  0  0  0  0  0  0  0
    7.7796   10.1314   21.5115 N   0  0  0  0  0  0  0  0  0  0  0  0
    9.2768    5.6183   21.4437 C   0  0  0  0  0  0  0  0  0  0  0  0
    8.6315    7.7322   23.1768 C   0  0  0  0  0  0  0  0  0  0  0  0
   13.0537    9.9821   20.5781 C   0  0  0  0  0  0  0  0  0  0  0  0
   10.3850    4.6575   23.2386 O   0  0  0  0  0  0  0  0  0  0  0  0
    4.2069    6.8450   20.7994 C   0  0  0  0  0  0  0  0  0  0  0  0
    3.0726   10.1043   19.8522 O   0  0  0  0  0  0  0  0  0  0  0  0
    5.5057    7.1196   21.1155 C   0  0  0  0  0  0  0  0  0  0  0  0
    7.0367   11.0229   21.9948 O   0  0  0  0  0  0  0  0  0  0  0  0
  1  8  4  0
  1 12  4  0
  2  9  1  0
  2 11  4  0
  2 25  4  0
  3 12  4  0
  3 14  1  0
  3 23  4  0
  4 13  4  0
  4 21  4  0
  4 24  1  0
  5  8  4  0
  5 23  4  0
  6 18  2  0
  7 15  4  0
  7 16  1  0
  7 27  4  0
  8 18  1  0
 10 18  1  0
 10 20  1  0
 11 15  4  0
 11 26  1  0
 13 22  4  0
 16 19  1  0
 16 20  2  0
 17 19  4  0
 17 21  4  0
 19 22  4  0
 20 28  1  0
 25 27  4  0
M  END
$$$$

 Created by Python create_sdf_string function

 28 30  0  0  0  0  0  0  0  0999 V2000
   11.4592   11.2893   18.7941 C   0  0  0  0  0  0  0  0  0  0  0  0
    3.4202    7.9009   20.3866 C   0  0  0  0  0  0  0  0  0  0  0  0
   13.5280   10.3522   19.3586 C   0  0  0  0  0  0  0  0  0  0  0  0
    9.6923    5.6468   22.7891 C   0  0  0  0  0  0  0  0  0  0  0  0
   11.7756   10.2554   20.8841 N   0  0  0  0  0  0  0  0  0  0  0  0
    8.9876   11.9370   19.8757 O   0  0  0  0  0  0  0  0  0  0  0  0
    6.0167    8.4478   21.1089 C   0  0  0  0  0  0  0  0  0  0  0  0
   11.0002   10.8890   20.0262 C   0  0  0  0  0  0  0  0  0  0  0  0
    2.1721    7.7393   20.0315 O   0  0  0  0  0  0  0  0  0  0  0  0
    9.1107   10.3880   21.3769 N   0  0  0  0  0  0  0  0  0  0  0  0
    3.9102    9.2008   20.3124 C   0  0  0  0  0  0  0  0  0  0  0  0
   12.7292   10.9960   18.4597 C   0  0  0  0  0  0  0  0  0  0  0  0
    9.3798    6.6793   23.6625 C   0  0  0  0  0  0  0  0  0  0  0  0
   14.7425   10.0739   19.0802 O   0  0  0  0  0  0  0  0  0  0  0  0
    5.1894    9.4673   20.7118 C   0  0  0  0  0  0  0  0  0  0  0  0
    7.3773    8.8224   21.4870 C   0  0  0  0  0  0  0  0  0  0  0  0
    8.4391    6.6439   21.0235 C   0  0  0  0  0  0  0  0  0  0  0  0
    9.6494   11.1353   20.4167 C   0  0  0  0  0  0  0  0  0  0  0  0
    8.1431    7.6829   21.9046 C   0  0  0  0  0  0  0  0  0  0  0  0
    7.7796   10.1314   21.5115 N   0  0  0  0  0  0  0  0  0  0  0  0
    9.2768    5.6183   21.4437 C   0  0  0  0  0  0  0  0  0  0  0  0
    8.6315    7.7322   23.1768 C   0  0  0  0  0  0  0  0  0  0  0  0
   13.0537    9.9821   20.5781 C   0  0  0  0  0  0  0  0  0  0  0  0
   10.3850    4.6575   23.2386 O   0  0  0  0  0  0  0  0  0  0  0  0
    4.2069    6.8450   20.7994 C   0  0  0  0  0  0  0  0  0  0  0  0
    3.0726   10.1043   19.8522 O   0  0  0  0  0  0  0  0  0  0  0  0
    5.5057    7.1196   21.1155 C   0  0  0  0  0  0  0  0  0  0  0  0
    7.0367   11.0229   21.9948 O   0  0  0  0  0  0  0  0  0  0  0  0
  1  8  4  0
  1 12  4  0
  2  9  1  0
  2 11  4  0
  2 25  4  0
  3 12  4  0
  3 14  1  0
  3 23  4  0
  4 13  4  0
  4 21  4  0
  4 24  1  0
  5  8  4  0
  5 23  4  0
  6 18  2  0
  7 15  4  0
  7 16  1  0
  7 27  4  0
  8 18  1  0
 10 18  1  0
 10 20  1  0
 11 15  4  0
 11 26  1  0
 13 22  4  0
 16 19  1  0
 16 20  2  0
 17 19  4  0
 17 21  4  0
 19 22  4  0
 20 28  1  0
 25 27  4  0
M  END
$$$$

 Created by Python create_sdf_string function

 28 30  0  0  0  0  0  0  0  0999 V2000
   11.4592   11.2893   18.7941 C   0  0  0  0  0  0  0  0  0  0  0  0
    3.4202    7.9009   20.3866 C   0  0  0  0  0  0  0  0  0  0  0  0
   13.5280   10.3522   19.3586 C   0  0  0  0  0  0  0  0  0  0  0  0
    9.6923    5.6468   22.7891 C   0  0  0  0  0  0  0  0  0  0  0  0
   11.7756   10.2554   20.8841 N   0  0  0  0  0  0  0  0  0  0  0  0
    8.9876   11.9370   19.8757 O   0  0  0  0  0  0  0  0  0  0  0  0
    6.0167    8.4478   21.1089 C   0  0  0  0  0  0  0  0  0  0  0  0
   11.0002   10.8890   20.0262 C   0  0  0  0  0  0  0  0  0  0  0  0
    2.1721    7.7393   20.0315 O   0  0  0  0  0  0  0  0  0  0  0  0
    9.1107   10.3880   21.3769 N   0  0  0  0  0  0  0  0  0  0  0  0
    3.9102    9.2008   20.3124 C   0  0  0  0  0  0  0  0  0  0  0  0
   12.7292   10.9960   18.4597 C   0  0  0  0  0  0  0  0  0  0  0  0
    9.3798    6.6793   23.6625 C   0  0  0  0  0  0  0  0  0  0  0  0
   14.7425   10.0739   19.0802 O   0  0  0  0  0  0  0  0  0  0  0  0
    5.1894    9.4673   20.7118 C   0  0  0  0  0  0  0  0  0  0  0  0
    7.3773    8.8224   21.4870 C   0  0  0  0  0  0  0  0  0  0  0  0
    8.4391    6.6439   21.0235 C   0  0  0  0  0  0  0  0  0  0  0  0
    9.6494   11.1353   20.4167 C   0  0  0  0  0  0  0  0  0  0  0  0
    8.1431    7.6829   21.9046 C   0  0  0  0  0  0  0  0  0  0  0  0
    7.7796   10.1314   21.5115 N   0  0  0  0  0  0  0  0  0  0  0  0
    9.2768    5.6183   21.4437 C   0  0  0  0  0  0  0  0  0  0  0  0
    8.6315    7.7322   23.1768 C   0  0  0  0  0  0  0  0  0  0  0  0
   13.0537    9.9821   20.5781 C   0  0  0  0  0  0  0  0  0  0  0  0
   10.3850    4.6575   23.2386 O   0  0  0  0  0  0  0  0  0  0  0  0
    4.2069    6.8450   20.7994 C   0  0  0  0  0  0  0  0  0  0  0  0
    3.0726   10.1043   19.8522 O   0  0  0  0  0  0  0  0  0  0  0  0
    5.5057    7.1196   21.1155 C   0  0  0  0  0  0  0  0  0  0  0  0
    7.0367   11.0229   21.9948 O   0  0  0  0  0  0  0  0  0  0  0  0
  1  8  4  0
  1 12  4  0
  2  9  1  0
  2 11  4  0
  2 25  4  0
  3 12  4  0
  3 14  1  0
  3 23  4  0
  4 13  4  0
  4 21  4  0
  4 24  1  0
  5  8  4  0
  5 23  4  0
  6 18  2  0
  7 15  4  0
  7 16  1  0
  7 27  4  0
  8 18  1  0
 10 18  1  0
 10 20  1  0
 11 15  4  0
 11 26  1  0
 13 22  4  0
 16 19  1  0
 16 20  2  0
 17 19  4  0
 17 21  4  0
 19 22  4  0
 20 28  1  0
 25 27  4  0
M  END
$$$$

 Created by Python create_sdf_string function

 28 30  0  0  0  0  0  0  0  0999 V2000
   11.4592   11.2893   18.7941 C   0  0  0  0  0  0  0  0  0  0  0  0
    3.4202    7.9009   20.3866 C   0  0  0  0  0  0  0  0  0  0  0  0
   13.5280   10.3522   19.3586 C   0  0  0  0  0  0  0  0  0  0  0  0
    9.6923    5.6468   22.7891 C   0  0  0  0  0  0  0  0  0  0  0  0
   11.7756   10.2554   20.8841 N   0  0  0  0  0  0  0  0  0  0  0  0
    8.9876   11.9370   19.8757 O   0  0  0  0  0  0  0  0  0  0  0  0
    6.0167    8.4478   21.1089 C   0  0  0  0  0  0  0  0  0  0  0  0
   11.0002   10.8890   20.0262 C   0  0  0  0  0  0  0  0  0  0  0  0
    2.1721    7.7393   20.0315 O   0  0  0  0  0  0  0  0  0  0  0  0
    9.1107   10.3880   21.3769 N   0  0  0  0  0  0  0  0  0  0  0  0
    3.9102    9.2008   20.3124 C   0  0  0  0  0  0  0  0  0  0  0  0
   12.7292   10.9960   18.4597 C   0  0  0  0  0  0  0  0  0  0  0  0
    9.3798    6.6793   23.6625 C   0  0  0  0  0  0  0  0  0  0  0  0
   14.7425   10.0739   19.0802 O   0  0  0  0  0  0  0  0  0  0  0  0
    5.1894    9.4673   20.7118 C   0  0  0  0  0  0  0  0  0  0  0  0
    7.3773    8.8224   21.4870 C   0  0  0  0  0  0  0  0  0  0  0  0
    8.4391    6.6439   21.0235 C   0  0  0  0  0  0  0  0  0  0  0  0
    9.6494   11.1353   20.4167 C   0  0  0  0  0  0  0  0  0  0  0  0
    8.1431    7.6829   21.9046 C   0  0  0  0  0  0  0  0  0  0  0  0
    7.7796   10.1314   21.5115 N   0  0  0  0  0  0  0  0  0  0  0  0
    9.2768    5.6183   21.4437 C   0  0  0  0  0  0  0  0  0  0  0  0
    8.6315    7.7322   23.1768 C   0  0  0  0  0  0  0  0  0  0  0  0
   13.0537    9.9821   20.5781 C   0  0  0  0  0  0  0  0  0  0  0  0
   10.3850    4.6575   23.2386 O   0  0  0  0  0  0  0  0  0  0  0  0
    4.2069    6.8450   20.7994 C   0  0  0  0  0  0  0  0  0  0  0  0
    3.0726   10.1043   19.8522 O   0  0  0  0  0  0  0  0  0  0  0  0
    5.5057    7.1196   21.1155 C   0  0  0  0  0  0  0  0  0  0  0  0
    7.0367   11.0229   21.9948 O   0  0  0  0  0  0  0  0  0  0  0  0
  1  8  4  0
  1 12  4  0
  2  9  1  0
  2 11  4  0
  2 25  4  0
  3 12  4  0
  3 14  1  0
  3 23  4  0
  4 13  4  0
  4 21  4  0
  4 24  1  0
  5  8  4  0
  5 23  4  0
  6 18  2  0
  7 15  4  0
  7 16  1  0
  7 27  4  0
  8 18  1  0
 10 18  1  0
 10 20  1  0
 11 15  4  0
 11 26  1  0
 13 22  4  0
 16 19  1  0
 16 20  2  0
 17 19  4  0
 17 21  4  0
 19 22  4  0
 20 28  1  0
 25 27  4  0
M  END
$$$$

 Created by Python create_sdf_string function

 28 30  0  0  0  0  0  0  0  0999 V2000
   11.4592   11.2893   18.7941 C   0  0  0  0  0  0  0  0  0  0  0  0
    3.4202    7.9009   20.3866 C   0  0  0  0  0  0  0  0  0  0  0  0
   13.5280   10.3522   19.3586 C   0  0  0  0  0  0  0  0  0  0  0  0
    9.6923    5.6468   22.7891 C   0  0  0  0  0  0  0  0  0  0  0  0
   11.7756   10.2554   20.8841 N   0  0  0  0  0  0  0  0  0  0  0  0
    8.9876   11.9370   19.8757 O   0  0  0  0  0  0  0  0  0  0  0  0
    6.0167    8.4478   21.1089 C   0  0  0  0  0  0  0  0  0  0  0  0
   11.0002   10.8890   20.0262 C   0  0  0  0  0  0  0  0  0  0  0  0
    2.1721    7.7393   20.0315 O   0  0  0  0  0  0  0  0  0  0  0  0
    9.1107   10.3880   21.3769 N   0  0  0  0  0  0  0  0  0  0  0  0
    3.9102    9.2008   20.3124 C   0  0  0  0  0  0  0  0  0  0  0  0
   12.7292   10.9960   18.4597 C   0  0  0  0  0  0  0  0  0  0  0  0
    9.3798    6.6793   23.6625 C   0  0  0  0  0  0  0  0  0  0  0  0
   14.7425   10.0739   19.0802 O   0  0  0  0  0  0  0  0  0  0  0  0
    5.1894    9.4673   20.7118 C   0  0  0  0  0  0  0  0  0  0  0  0
    7.3773    8.8224   21.4870 C   0  0  0  0  0  0  0  0  0  0  0  0
    8.4391    6.6439   21.0235 C   0  0  0  0  0  0  0  0  0  0  0  0
    9.6494   11.1353   20.4167 C   0  0  0  0  0  0  0  0  0  0  0  0
    8.1431    7.6829   21.9046 C   0  0  0  0  0  0  0  0  0  0  0  0
    7.7796   10.1314   21.5115 N   0  0  0  0  0  0  0  0  0  0  0  0
    9.2768    5.6183   21.4437 C   0  0  0  0  0  0  0  0  0  0  0  0
    8.6315    7.7322   23.1768 C   0  0  0  0  0  0  0  0  0  0  0  0
   13.0537    9.9821   20.5781 C   0  0  0  0  0  0  0  0  0  0  0  0
   10.3850    4.6575   23.2386 O   0  0  0  0  0  0  0  0  0  0  0  0
    4.2069    6.8450   20.7994 C   0  0  0  0  0  0  0  0  0  0  0  0
    3.0726   10.1043   19.8522 O   0  0  0  0  0  0  0  0  0  0  0  0
    5.5057    7.1196   21.1155 C   0  0  0  0  0  0  0  0  0  0  0  0
    7.0367   11.0229   21.9948 O   0  0  0  0  0  0  0  0  0  0  0  0
  1  8  4  0
  1 12  4  0
  2  9  1  0
  2 11  4  0
  2 25  4  0
  3 12  4  0
  3 14  1  0
  3 23  4  0
  4 13  4  0
  4 21  4  0
  4 24  1  0
  5  8  4  0
  5 23  4  0
  6 18  2  0
  7 15  4  0
  7 16  1  0
  7 27  4  0
  8 18  1  0
 10 18  1  0
 10 20  1  0
 11 15  4  0
 11 26  1  0
 13 22  4  0
 16 19  1  0
 16 20  2  0
 17 19  4  0
 17 21  4  0
 19 22  4  0
 20 28  1  0
 25 27  4  0
M  END
$$$$

 Created by Python create_sdf_string function

 28 30  0  0  0  0  0  0  0  0999 V2000
   11.4592   11.2893   18.7941 C   0  0  0  0  0  0  0  0  0  0  0  0
    3.4202    7.9009   20.3866 C   0  0  0  0  0  0  0  0  0  0  0  0
   13.5280   10.3522   19.3586 C   0  0  0  0  0  0  0  0  0  0  0  0
    9.6923    5.6468   22.7891 C   0  0  0  0  0  0  0  0  0  0  0  0
   11.7756   10.2554   20.8841 N   0  0  0  0  0  0  0  0  0  0  0  0
    8.9876   11.9370   19.8757 O   0  0  0  0  0  0  0  0  0  0  0  0
    6.0167    8.4478   21.1089 C   0  0  0  0  0  0  0  0  0  0  0  0
   11.0002   10.8890   20.0262 C   0  0  0  0  0  0  0  0  0  0  0  0
    2.1721    7.7393   20.0315 O   0  0  0  0  0  0  0  0  0  0  0  0
    9.1107   10.3880   21.3769 N   0  0  0  0  0  0  0  0  0  0  0  0
    3.9102    9.2008   20.3124 C   0  0  0  0  0  0  0  0  0  0  0  0
   12.7292   10.9960   18.4597 C   0  0  0  0  0  0  0  0  0  0  0  0
    9.3798    6.6793   23.6625 C   0  0  0  0  0  0  0  0  0  0  0  0
   14.7425   10.0739   19.0802 O   0  0  0  0  0  0  0  0  0  0  0  0
    5.1894    9.4673   20.7118 C   0  0  0  0  0  0  0  0  0  0  0  0
    7.3773    8.8224   21.4870 C   0  0  0  0  0  0  0  0  0  0  0  0
    8.4391    6.6439   21.0235 C   0  0  0  0  0  0  0  0  0  0  0  0
    9.6494   11.1353   20.4167 C   0  0  0  0  0  0  0  0  0  0  0  0
    8.1431    7.6829   21.9046 C   0  0  0  0  0  0  0  0  0  0  0  0
    7.7796   10.1314   21.5115 N   0  0  0  0  0  0  0  0  0  0  0  0
    9.2768    5.6183   21.4437 C   0  0  0  0  0  0  0  0  0  0  0  0
    8.6315    7.7322   23.1768 C   0  0  0  0  0  0  0  0  0  0  0  0
   13.0537    9.9821   20.5781 C   0  0  0  0  0  0  0  0  0  0  0  0
   10.3850    4.6575   23.2386 O   0  0  0  0  0  0  0  0  0  0  0  0
    4.2069    6.8450   20.7994 C   0  0  0  0  0  0  0  0  0  0  0  0
    3.0726   10.1043   19.8522 O   0  0  0  0  0  0  0  0  0  0  0  0
    5.5057    7.1196   21.1155 C   0  0  0  0  0  0  0  0  0  0  0  0
    7.0367   11.0229   21.9948 O   0  0  0  0  0  0  0  0  0  0  0  0
  1  8  4  0
  1 12  4  0
  2  9  1  0
  2 11  4  0
  2 25  4  0
  3 12  4  0
  3 14  1  0
  3 23  4  0
  4 13  4  0
  4 21  4  0
  4 24  1  0
  5  8  4  0
  5 23  4  0
  6 18  2  0
  7 15  4  0
  7 16  1  0
  7 27  4  0
  8 18  1  0
 10 18  1  0
 10 20  1  0
 11 15  4  0
 11 26  1  0
 13 22  4  0
 16 19  1  0
 16 20  2  0
 17 19  4  0
 17 21  4  0
 19 22  4  0
 20 28  1  0
 25 27  4  0
M  END
$$$$

 Created by Python create_sdf_string function

 28 30  0  0  0  0  0  0  0  0999 V2000
   11.4592   11.2893   18.7941 C   0  0  0  0  0  0  0  0  0  0  0  0
    3.4202    7.9009   20.3866 C   0  0  0  0  0  0  0  0  0  0  0  0
   13.5280   10.3522   19.3586 C   0  0  0  0  0  0  0  0  0  0  0  0
    9.6923    5.6468   22.7891 C   0  0  0  0  0  0  0  0  0  0  0  0
   11.7756   10.2554   20.8841 N   0  0  0  0  0  0  0  0  0  0  0  0
    8.9876   11.9370   19.8757 O   0  0  0  0  0  0  0  0  0  0  0  0
    6.0167    8.4478   21.1089 C   0  0  0  0  0  0  0  0  0  0  0  0
   11.0002   10.8890   20.0262 C   0  0  0  0  0  0  0  0  0  0  0  0
    2.1721    7.7393   20.0315 O   0  0  0  0  0  0  0  0  0  0  0  0
    9.1107   10.3880   21.3769 N   0  0  0  0  0  0  0  0  0  0  0  0
    3.9102    9.2008   20.3124 C   0  0  0  0  0  0  0  0  0  0  0  0
   12.7292   10.9960   18.4597 C   0  0  0  0  0  0  0  0  0  0  0  0
    9.3798    6.6793   23.6625 C   0  0  0  0  0  0  0  0  0  0  0  0
   14.7425   10.0739   19.0802 O   0  0  0  0  0  0  0  0  0  0  0  0
    5.1894    9.4673   20.7118 C   0  0  0  0  0  0  0  0  0  0  0  0
    7.3773    8.8224   21.4870 C   0  0  0  0  0  0  0  0  0  0  0  0
    8.4391    6.6439   21.0235 C   0  0  0  0  0  0  0  0  0  0  0  0
    9.6494   11.1353   20.4167 C   0  0  0  0  0  0  0  0  0  0  0  0
    8.1431    7.6829   21.9046 C   0  0  0  0  0  0  0  0  0  0  0  0
    7.7796   10.1314   21.5115 N   0  0  0  0  0  0  0  0  0  0  0  0
    9.2768    5.6183   21.4437 C   0  0  0  0  0  0  0  0  0  0  0  0
    8.6315    7.7322   23.1768 C   0  0  0  0  0  0  0  0  0  0  0  0
   13.0537    9.9821   20.5781 C   0  0  0  0  0  0  0  0  0  0  0  0
   10.3850    4.6575   23.2386 O   0  0  0  0  0  0  0  0  0  0  0  0
    4.2069    6.8450   20.7994 C   0  0  0  0  0  0  0  0  0  0  0  0
    3.0726   10.1043   19.8522 O   0  0  0  0  0  0  0  0  0  0  0  0
    5.5057    7.1196   21.1155 C   0  0  0  0  0  0  0  0  0  0  0  0
    7.0367   11.0229   21.9948 O   0  0  0  0  0  0  0  0  0  0  0  0
  1  8  4  0
  1 12  4  0
  2  9  1  0
  2 11  4  0
  2 25  4  0
  3 12  4  0
  3 14  1  0
  3 23  4  0
  4 13  4  0
  4 21  4  0
  4 24  1  0
  5  8  4  0
  5 23  4  0
  6 18  2  0
  7 15  4  0
  7 16  1  0
  7 27  4  0
  8 18  1  0
 10 18  1  0
 10 20  1  0
 11 15  4  0
 11 26  1  0
 13 22  4  0
 16 19  1  0
 16 20  2  0
 17 19  4  0
 17 21  4  0
 19 22  4  0
 20 28  1  0
 25 27  4  0
M  END
$$$$

 Created by Python create_sdf_string function

 28 30  0  0  0  0  0  0  0  0999 V2000
   11.4592   11.2893   18.7941 C   0  0  0  0  0  0  0  0  0  0  0  0
    3.4202    7.9009   20.3866 C   0  0  0  0  0  0  0  0  0  0  0  0
   13.5280   10.3522   19.3586 C   0  0  0  0  0  0  0  0  0  0  0  0
    9.6923    5.6468   22.7891 C   0  0  0  0  0  0  0  0  0  0  0  0
   11.7756   10.2554   20.8841 N   0  0  0  0  0  0  0  0  0  0  0  0
    8.9876   11.9370   19.8757 O   0  0  0  0  0  0  0  0  0  0  0  0
    6.0167    8.4478   21.1089 C   0  0  0  0  0  0  0  0  0  0  0  0
   11.0002   10.8890   20.0262 C   0  0  0  0  0  0  0  0  0  0  0  0
    2.1721    7.7393   20.0315 O   0  0  0  0  0  0  0  0  0  0  0  0
    9.1107   10.3880   21.3769 N   0  0  0  0  0  0  0  0  0  0  0  0
    3.9102    9.2008   20.3124 C   0  0  0  0  0  0  0  0  0  0  0  0
   12.7292   10.9960   18.4597 C   0  0  0  0  0  0  0  0  0  0  0  0
    9.3798    6.6793   23.6625 C   0  0  0  0  0  0  0  0  0  0  0  0
   14.7425   10.0739   19.0802 O   0  0  0  0  0  0  0  0  0  0  0  0
    5.1894    9.4673   20.7118 C   0  0  0  0  0  0  0  0  0  0  0  0
    7.3773    8.8224   21.4870 C   0  0  0  0  0  0  0  0  0  0  0  0
    8.4391    6.6439   21.0235 C   0  0  0  0  0  0  0  0  0  0  0  0
    9.6494   11.1353   20.4167 C   0  0  0  0  0  0  0  0  0  0  0  0
    8.1431    7.6829   21.9046 C   0  0  0  0  0  0  0  0  0  0  0  0
    7.7796   10.1314   21.5115 N   0  0  0  0  0  0  0  0  0  0  0  0
    9.2768    5.6183   21.4437 C   0  0  0  0  0  0  0  0  0  0  0  0
    8.6315    7.7322   23.1768 C   0  0  0  0  0  0  0  0  0  0  0  0
   13.0537    9.9821   20.5781 C   0  0  0  0  0  0  0  0  0  0  0  0
   10.3850    4.6575   23.2386 O   0  0  0  0  0  0  0  0  0  0  0  0
    4.2069    6.8450   20.7994 C   0  0  0  0  0  0  0  0  0  0  0  0
    3.0726   10.1043   19.8522 O   0  0  0  0  0  0  0  0  0  0  0  0
    5.5057    7.1196   21.1155 C   0  0  0  0  0  0  0  0  0  0  0  0
    7.0367   11.0229   21.9948 O   0  0  0  0  0  0  0  0  0  0  0  0
  1  8  4  0
  1 12  4  0
  2  9  1  0
  2 11  4  0
  2 25  4  0
  3 12  4  0
  3 14  1  0
  3 23  4  0
  4 13  4  0
  4 21  4  0
  4 24  1  0
  5  8  4  0
  5 23  4  0
  6 18  2  0
  7 15  4  0
  7 16  1  0
  7 27  4  0
  8 18  1  0
 10 18  1  0
 10 20  1  0
 11 15  4  0
 11 26  1  0
 13 22  4  0
 16 19  1  0
 16 20  2  0
 17 19  4  0
 17 21  4  0
 19 22  4  0
 20 28  1  0
 25 27  4  0
M  END
$$$$

 Created by Python create_sdf_string function

 28 30  0  0  0  0  0  0  0  0999 V2000
   11.4592   11.2893   18.7941 C   0  0  0  0  0  0  0  0  0  0  0  0
    3.4202    7.9009   20.3866 C   0  0  0  0  0  0  0  0  0  0  0  0
   13.5280   10.3522   19.3586 C   0  0  0  0  0  0  0  0  0  0  0  0
    9.6923    5.6468   22.7891 C   0  0  0  0  0  0  0  0  0  0  0  0
   11.7756   10.2554   20.8841 N   0  0  0  0  0  0  0  0  0  0  0  0
    8.9876   11.9370   19.8757 O   0  0  0  0  0  0  0  0  0  0  0  0
    6.0167    8.4478   21.1089 C   0  0  0  0  0  0  0  0  0  0  0  0
   11.0002   10.8890   20.0262 C   0  0  0  0  0  0  0  0  0  0  0  0
    2.1721    7.7393   20.0315 O   0  0  0  0  0  0  0  0  0  0  0  0
    9.1107   10.3880   21.3769 N   0  0  0  0  0  0  0  0  0  0  0  0
    3.9102    9.2008   20.3124 C   0  0  0  0  0  0  0  0  0  0  0  0
   12.7292   10.9960   18.4597 C   0  0  0  0  0  0  0  0  0  0  0  0
    9.3798    6.6793   23.6625 C   0  0  0  0  0  0  0  0  0  0  0  0
   14.7425   10.0739   19.0802 O   0  0  0  0  0  0  0  0  0  0  0  0
    5.1894    9.4673   20.7118 C   0  0  0  0  0  0  0  0  0  0  0  0
    7.3773    8.8224   21.4870 C   0  0  0  0  0  0  0  0  0  0  0  0
    8.4391    6.6439   21.0235 C   0  0  0  0  0  0  0  0  0  0  0  0
    9.6494   11.1353   20.4167 C   0  0  0  0  0  0  0  0  0  0  0  0
    8.1431    7.6829   21.9046 C   0  0  0  0  0  0  0  0  0  0  0  0
    7.7796   10.1314   21.5115 N   0  0  0  0  0  0  0  0  0  0  0  0
    9.2768    5.6183   21.4437 C   0  0  0  0  0  0  0  0  0  0  0  0
    8.6315    7.7322   23.1768 C   0  0  0  0  0  0  0  0  0  0  0  0
   13.0537    9.9821   20.5781 C   0  0  0  0  0  0  0  0  0  0  0  0
   10.3850    4.6575   23.2386 O   0  0  0  0  0  0  0  0  0  0  0  0
    4.2069    6.8450   20.7994 C   0  0  0  0  0  0  0  0  0  0  0  0
    3.0726   10.1043   19.8522 O   0  0  0  0  0  0  0  0  0  0  0  0
    5.5057    7.1196   21.1155 C   0  0  0  0  0  0  0  0  0  0  0  0
    7.0367   11.0229   21.9948 O   0  0  0  0  0  0  0  0  0  0  0  0
  1  8  4  0
  1 12  4  0
  2  9  1  0
  2 11  4  0
  2 25  4  0
  3 12  4  0
  3 14  1  0
  3 23  4  0
  4 13  4  0
  4 21  4  0
  4 24  1  0
  5  8  4  0
  5 23  4  0
  6 18  2  0
  7 15  4  0
  7 16  1  0
  7 27  4  0
  8 18  1  0
 10 18  1  0
 10 20  1  0
 11 15  4  0
 11 26  1  0
 13 22  4  0
 16 19  1  0
 16 20  2  0
 17 19  4  0
 17 21  4  0
 19 22  4  0
 20 28  1  0
 25 27  4  0
M  END
$$$$

 Created by Python create_sdf_string function

 28 30  0  0  0  0  0  0  0  0999 V2000
   11.4592   11.2893   18.7941 C   0  0  0  0  0  0  0  0  0  0  0  0
    3.4202    7.9009   20.3866 C   0  0  0  0  0  0  0  0  0  0  0  0
   13.5280   10.3522   19.3586 C   0  0  0  0  0  0  0  0  0  0  0  0
    9.6923    5.6468   22.7891 C   0  0  0  0  0  0  0  0  0  0  0  0
   11.7756   10.2554   20.8841 N   0  0  0  0  0  0  0  0  0  0  0  0
    8.9876   11.9370   19.8757 O   0  0  0  0  0  0  0  0  0  0  0  0
    6.0167    8.4478   21.1089 C   0  0  0  0  0  0  0  0  0  0  0  0
   11.0002   10.8890   20.0262 C   0  0  0  0  0  0  0  0  0  0  0  0
    2.1721    7.7393   20.0315 O   0  0  0  0  0  0  0  0  0  0  0  0
    9.1107   10.3880   21.3769 N   0  0  0  0  0  0  0  0  0  0  0  0
    3.9102    9.2008   20.3124 C   0  0  0  0  0  0  0  0  0  0  0  0
   12.7292   10.9960   18.4597 C   0  0  0  0  0  0  0  0  0  0  0  0
    9.3798    6.6793   23.6625 C   0  0  0  0  0  0  0  0  0  0  0  0
   14.7425   10.0739   19.0802 O   0  0  0  0  0  0  0  0  0  0  0  0
    5.1894    9.4673   20.7118 C   0  0  0  0  0  0  0  0  0  0  0  0
    7.3773    8.8224   21.4870 C   0  0  0  0  0  0  0  0  0  0  0  0
    8.4391    6.6439   21.0235 C   0  0  0  0  0  0  0  0  0  0  0  0
    9.6494   11.1353   20.4167 C   0  0  0  0  0  0  0  0  0  0  0  0
    8.1431    7.6829   21.9046 C   0  0  0  0  0  0  0  0  0  0  0  0
    7.7796   10.1314   21.5115 N   0  0  0  0  0  0  0  0  0  0  0  0
    9.2768    5.6183   21.4437 C   0  0  0  0  0  0  0  0  0  0  0  0
    8.6315    7.7322   23.1768 C   0  0  0  0  0  0  0  0  0  0  0  0
   13.0537    9.9821   20.5781 C   0  0  0  0  0  0  0  0  0  0  0  0
   10.3850    4.6575   23.2386 O   0  0  0  0  0  0  0  0  0  0  0  0
    4.2069    6.8450   20.7994 C   0  0  0  0  0  0  0  0  0  0  0  0
    3.0726   10.1043   19.8522 O   0  0  0  0  0  0  0  0  0  0  0  0
    5.5057    7.1196   21.1155 C   0  0  0  0  0  0  0  0  0  0  0  0
    7.0367   11.0229   21.9948 O   0  0  0  0  0  0  0  0  0  0  0  0
  1  8  4  0
  1 12  4  0
  2  9  1  0
  2 11  4  0
  2 25  4  0
  3 12  4  0
  3 14  1  0
  3 23  4  0
  4 13  4  0
  4 21  4  0
  4 24  1  0
  5  8  4  0
  5 23  4  0
  6 18  2  0
  7 15  4  0
  7 16  1  0
  7 27  4  0
  8 18  1  0
 10 18  1  0
 10 20  1  0
 11 15  4  0
 11 26  1  0
 13 22  4  0
 16 19  1  0
 16 20  2  0
 17 19  4  0
 17 21  4  0
 19 22  4  0
 20 28  1  0
 25 27  4  0
M  END
$$$$

 Created by Python create_sdf_string function

 28 30  0  0  0  0  0  0  0  0999 V2000
   11.4592   11.2893   18.7941 C   0  0  0  0  0  0  0  0  0  0  0  0
    3.4202    7.9009   20.3866 C   0  0  0  0  0  0  0  0  0  0  0  0
   13.5280   10.3522   19.3586 C   0  0  0  0  0  0  0  0  0  0  0  0
    9.6923    5.6468   22.7891 C   0  0  0  0  0  0  0  0  0  0  0  0
   11.7756   10.2554   20.8841 N   0  0  0  0  0  0  0  0  0  0  0  0
    8.9876   11.9370   19.8757 O   0  0  0  0  0  0  0  0  0  0  0  0
    6.0167    8.4478   21.1089 C   0  0  0  0  0  0  0  0  0  0  0  0
   11.0002   10.8890   20.0262 C   0  0  0  0  0  0  0  0  0  0  0  0
    2.1721    7.7393   20.0315 O   0  0  0  0  0  0  0  0  0  0  0  0
    9.1107   10.3880   21.3769 N   0  0  0  0  0  0  0  0  0  0  0  0
    3.9102    9.2008   20.3124 C   0  0  0  0  0  0  0  0  0  0  0  0
   12.7292   10.9960   18.4597 C   0  0  0  0  0  0  0  0  0  0  0  0
    9.3798    6.6793   23.6625 C   0  0  0  0  0  0  0  0  0  0  0  0
   14.7425   10.0739   19.0802 O   0  0  0  0  0  0  0  0  0  0  0  0
    5.1894    9.4673   20.7118 C   0  0  0  0  0  0  0  0  0  0  0  0
    7.3773    8.8224   21.4870 C   0  0  0  0  0  0  0  0  0  0  0  0
    8.4391    6.6439   21.0235 C   0  0  0  0  0  0  0  0  0  0  0  0
    9.6494   11.1353   20.4167 C   0  0  0  0  0  0  0  0  0  0  0  0
    8.1431    7.6829   21.9046 C   0  0  0  0  0  0  0  0  0  0  0  0
    7.7796   10.1314   21.5115 N   0  0  0  0  0  0  0  0  0  0  0  0
    9.2768    5.6183   21.4437 C   0  0  0  0  0  0  0  0  0  0  0  0
    8.6315    7.7322   23.1768 C   0  0  0  0  0  0  0  0  0  0  0  0
   13.0537    9.9821   20.5781 C   0  0  0  0  0  0  0  0  0  0  0  0
   10.3850    4.6575   23.2386 O   0  0  0  0  0  0  0  0  0  0  0  0
    4.2069    6.8450   20.7994 C   0  0  0  0  0  0  0  0  0  0  0  0
    3.0726   10.1043   19.8522 O   0  0  0  0  0  0  0  0  0  0  0  0
    5.5057    7.1196   21.1155 C   0  0  0  0  0  0  0  0  0  0  0  0
    7.0367   11.0229   21.9948 O   0  0  0  0  0  0  0  0  0  0  0  0
  1  8  4  0
  1 12  4  0
  2  9  1  0
  2 11  4  0
  2 25  4  0
  3 12  4  0
  3 14  1  0
  3 23  4  0
  4 13  4  0
  4 21  4  0
  4 24  1  0
  5  8  4  0
  5 23  4  0
  6 18  2  0
  7 15  4  0
  7 16  1  0
  7 27  4  0
  8 18  1  0
 10 18  1  0
 10 20  1  0
 11 15  4  0
 11 26  1  0
 13 22  4  0
 16 19  1  0
 16 20  2  0
 17 19  4  0
 17 21  4  0
 19 22  4  0
 20 28  1  0
 25 27  4  0
M  END
$$$$

 Created by Python create_sdf_string function

 28 30  0  0  0  0  0  0  0  0999 V2000
   11.4592   11.2893   18.7941 C   0  0  0  0  0  0  0  0  0  0  0  0
    3.4202    7.9009   20.3866 C   0  0  0  0  0  0  0  0  0  0  0  0
   13.5280   10.3522   19.3586 C   0  0  0  0  0  0  0  0  0  0  0  0
    9.6923    5.6468   22.7891 C   0  0  0  0  0  0  0  0  0  0  0  0
   11.7756   10.2554   20.8841 N   0  0  0  0  0  0  0  0  0  0  0  0
    8.9876   11.9370   19.8757 O   0  0  0  0  0  0  0  0  0  0  0  0
    6.0167    8.4478   21.1089 C   0  0  0  0  0  0  0  0  0  0  0  0
   11.0002   10.8890   20.0262 C   0  0  0  0  0  0  0  0  0  0  0  0
    2.1721    7.7393   20.0315 O   0  0  0  0  0  0  0  0  0  0  0  0
    9.1107   10.3880   21.3769 N   0  0  0  0  0  0  0  0  0  0  0  0
    3.9102    9.2008   20.3124 C   0  0  0  0  0  0  0  0  0  0  0  0
   12.7292   10.9960   18.4597 C   0  0  0  0  0  0  0  0  0  0  0  0
    9.3798    6.6793   23.6625 C   0  0  0  0  0  0  0  0  0  0  0  0
   14.7425   10.0739   19.0802 O   0  0  0  0  0  0  0  0  0  0  0  0
    5.1894    9.4673   20.7118 C   0  0  0  0  0  0  0  0  0  0  0  0
    7.3773    8.8224   21.4870 C   0  0  0  0  0  0  0  0  0  0  0  0
    8.4391    6.6439   21.0235 C   0  0  0  0  0  0  0  0  0  0  0  0
    9.6494   11.1353   20.4167 C   0  0  0  0  0  0  0  0  0  0  0  0
    8.1431    7.6829   21.9046 C   0  0  0  0  0  0  0  0  0  0  0  0
    7.7796   10.1314   21.5115 N   0  0  0  0  0  0  0  0  0  0  0  0
    9.2768    5.6183   21.4437 C   0  0  0  0  0  0  0  0  0  0  0  0
    8.6315    7.7322   23.1768 C   0  0  0  0  0  0  0  0  0  0  0  0
   13.0537    9.9821   20.5781 C   0  0  0  0  0  0  0  0  0  0  0  0
   10.3850    4.6575   23.2386 O   0  0  0  0  0  0  0  0  0  0  0  0
    4.2069    6.8450   20.7994 C   0  0  0  0  0  0  0  0  0  0  0  0
    3.0726   10.1043   19.8522 O   0  0  0  0  0  0  0  0  0  0  0  0
    5.5057    7.1196   21.1155 C   0  0  0  0  0  0  0  0  0  0  0  0
    7.0367   11.0229   21.9948 O   0  0  0  0  0  0  0  0  0  0  0  0
  1  8  4  0
  1 12  4  0
  2  9  1  0
  2 11  4  0
  2 25  4  0
  3 12  4  0
  3 14  1  0
  3 23  4  0
  4 13  4  0
  4 21  4  0
  4 24  1  0
  5  8  4  0
  5 23  4  0
  6 18  2  0
  7 15  4  0
  7 16  1  0
  7 27  4  0
  8 18  1  0
 10 18  1  0
 10 20  1  0
 11 15  4  0
 11 26  1  0
 13 22  4  0
 16 19  1  0
 16 20  2  0
 17 19  4  0
 17 21  4  0
 19 22  4  0
 20 28  1  0
 25 27  4  0
M  END
$$$$

 Created by Python create_sdf_string function

 28 30  0  0  0  0  0  0  0  0999 V2000
   11.4592   11.2893   18.7941 C   0  0  0  0  0  0  0  0  0  0  0  0
    3.4202    7.9009   20.3866 C   0  0  0  0  0  0  0  0  0  0  0  0
   13.5280   10.3522   19.3586 C   0  0  0  0  0  0  0  0  0  0  0  0
    9.6923    5.6468   22.7891 C   0  0  0  0  0  0  0  0  0  0  0  0
   11.7756   10.2554   20.8841 N   0  0  0  0  0  0  0  0  0  0  0  0
    8.9876   11.9370   19.8757 O   0  0  0  0  0  0  0  0  0  0  0  0
    6.0167    8.4478   21.1089 C   0  0  0  0  0  0  0  0  0  0  0  0
   11.0002   10.8890   20.0262 C   0  0  0  0  0  0  0  0  0  0  0  0
    2.1721    7.7393   20.0315 O   0  0  0  0  0  0  0  0  0  0  0  0
    9.1107   10.3880   21.3769 N   0  0  0  0  0  0  0  0  0  0  0  0
    3.9102    9.2008   20.3124 C   0  0  0  0  0  0  0  0  0  0  0  0
   12.7292   10.9960   18.4597 C   0  0  0  0  0  0  0  0  0  0  0  0
    9.3798    6.6793   23.6625 C   0  0  0  0  0  0  0  0  0  0  0  0
   14.7425   10.0739   19.0802 O   0  0  0  0  0  0  0  0  0  0  0  0
    5.1894    9.4673   20.7118 C   0  0  0  0  0  0  0  0  0  0  0  0
    7.3773    8.8224   21.4870 C   0  0  0  0  0  0  0  0  0  0  0  0
    8.4391    6.6439   21.0235 C   0  0  0  0  0  0  0  0  0  0  0  0
    9.6494   11.1353   20.4167 C   0  0  0  0  0  0  0  0  0  0  0  0
    8.1431    7.6829   21.9046 C   0  0  0  0  0  0  0  0  0  0  0  0
    7.7796   10.1314   21.5115 N   0  0  0  0  0  0  0  0  0  0  0  0
    9.2768    5.6183   21.4437 C   0  0  0  0  0  0  0  0  0  0  0  0
    8.6315    7.7322   23.1768 C   0  0  0  0  0  0  0  0  0  0  0  0
   13.0537    9.9821   20.5781 C   0  0  0  0  0  0  0  0  0  0  0  0
   10.3850    4.6575   23.2386 O   0  0  0  0  0  0  0  0  0  0  0  0
    4.2069    6.8450   20.7994 C   0  0  0  0  0  0  0  0  0  0  0  0
    3.0726   10.1043   19.8522 O   0  0  0  0  0  0  0  0  0  0  0  0
    5.5057    7.1196   21.1155 C   0  0  0  0  0  0  0  0  0  0  0  0
    7.0367   11.0229   21.9948 O   0  0  0  0  0  0  0  0  0  0  0  0
  1  8  4  0
  1 12  4  0
  2  9  1  0
  2 11  4  0
  2 25  4  0
  3 12  4  0
  3 14  1  0
  3 23  4  0
  4 13  4  0
  4 21  4  0
  4 24  1  0
  5  8  4  0
  5 23  4  0
  6 18  2  0
  7 15  4  0
  7 16  1  0
  7 27  4  0
  8 18  1  0
 10 18  1  0
 10 20  1  0
 11 15  4  0
 11 26  1  0
 13 22  4  0
 16 19  1  0
 16 20  2  0
 17 19  4  0
 17 21  4  0
 19 22  4  0
 20 28  1  0
 25 27  4  0
M  END
$$$$

 Created by Python create_sdf_string function

 28 30  0  0  0  0  0  0  0  0999 V2000
   11.4592   11.2893   18.7941 C   0  0  0  0  0  0  0  0  0  0  0  0
    3.4202    7.9009   20.3866 C   0  0  0  0  0  0  0  0  0  0  0  0
   13.5280   10.3522   19.3586 C   0  0  0  0  0  0  0  0  0  0  0  0
    9.6923    5.6468   22.7891 C   0  0  0  0  0  0  0  0  0  0  0  0
   11.7756   10.2554   20.8841 N   0  0  0  0  0  0  0  0  0  0  0  0
    8.9876   11.9370   19.8757 O   0  0  0  0  0  0  0  0  0  0  0  0
    6.0167    8.4478   21.1089 C   0  0  0  0  0  0  0  0  0  0  0  0
   11.0002   10.8890   20.0262 C   0  0  0  0  0  0  0  0  0  0  0  0
    2.1721    7.7393   20.0315 O   0  0  0  0  0  0  0  0  0  0  0  0
    9.1107   10.3880   21.3769 N   0  0  0  0  0  0  0  0  0  0  0  0
    3.9102    9.2008   20.3124 C   0  0  0  0  0  0  0  0  0  0  0  0
   12.7292   10.9960   18.4597 C   0  0  0  0  0  0  0  0  0  0  0  0
    9.3798    6.6793   23.6625 C   0  0  0  0  0  0  0  0  0  0  0  0
   14.7425   10.0739   19.0802 O   0  0  0  0  0  0  0  0  0  0  0  0
    5.1894    9.4673   20.7118 C   0  0  0  0  0  0  0  0  0  0  0  0
    7.3773    8.8224   21.4870 C   0  0  0  0  0  0  0  0  0  0  0  0
    8.4391    6.6439   21.0235 C   0  0  0  0  0  0  0  0  0  0  0  0
    9.6494   11.1353   20.4167 C   0  0  0  0  0  0  0  0  0  0  0  0
    8.1431    7.6829   21.9046 C   0  0  0  0  0  0  0  0  0  0  0  0
    7.7796   10.1314   21.5115 N   0  0  0  0  0  0  0  0  0  0  0  0
    9.2768    5.6183   21.4437 C   0  0  0  0  0  0  0  0  0  0  0  0
    8.6315    7.7322   23.1768 C   0  0  0  0  0  0  0  0  0  0  0  0
   13.0537    9.9821   20.5781 C   0  0  0  0  0  0  0  0  0  0  0  0
   10.3850    4.6575   23.2386 O   0  0  0  0  0  0  0  0  0  0  0  0
    4.2069    6.8450   20.7994 C   0  0  0  0  0  0  0  0  0  0  0  0
    3.0726   10.1043   19.8522 O   0  0  0  0  0  0  0  0  0  0  0  0
    5.5057    7.1196   21.1155 C   0  0  0  0  0  0  0  0  0  0  0  0
    7.0367   11.0229   21.9948 O   0  0  0  0  0  0  0  0  0  0  0  0
  1  8  4  0
  1 12  4  0
  2  9  1  0
  2 11  4  0
  2 25  4  0
  3 12  4  0
  3 14  1  0
  3 23  4  0
  4 13  4  0
  4 21  4  0
  4 24  1  0
  5  8  4  0
  5 23  4  0
  6 18  2  0
  7 15  4  0
  7 16  1  0
  7 27  4  0
  8 18  1  0
 10 18  1  0
 10 20  1  0
 11 15  4  0
 11 26  1  0
 13 22  4  0
 16 19  1  0
 16 20  2  0
 17 19  4  0
 17 21  4  0
 19 22  4  0
 20 28  1  0
 25 27  4  0
M  END
$$$$

 Created by Python create_sdf_string function

 28 30  0  0  0  0  0  0  0  0999 V2000
   11.4592   11.2893   18.7941 C   0  0  0  0  0  0  0  0  0  0  0  0
    3.4202    7.9009   20.3866 C   0  0  0  0  0  0  0  0  0  0  0  0
   13.5280   10.3522   19.3586 C   0  0  0  0  0  0  0  0  0  0  0  0
    9.6923    5.6468   22.7891 C   0  0  0  0  0  0  0  0  0  0  0  0
   11.7756   10.2554   20.8841 N   0  0  0  0  0  0  0  0  0  0  0  0
    8.9876   11.9370   19.8757 O   0  0  0  0  0  0  0  0  0  0  0  0
    6.0167    8.4478   21.1089 C   0  0  0  0  0  0  0  0  0  0  0  0
   11.0002   10.8890   20.0262 C   0  0  0  0  0  0  0  0  0  0  0  0
    2.1721    7.7393   20.0315 O   0  0  0  0  0  0  0  0  0  0  0  0
    9.1107   10.3880   21.3769 N   0  0  0  0  0  0  0  0  0  0  0  0
    3.9102    9.2008   20.3124 C   0  0  0  0  0  0  0  0  0  0  0  0
   12.7292   10.9960   18.4597 C   0  0  0  0  0  0  0  0  0  0  0  0
    9.3798    6.6793   23.6625 C   0  0  0  0  0  0  0  0  0  0  0  0
   14.7425   10.0739   19.0802 O   0  0  0  0  0  0  0  0  0  0  0  0
    5.1894    9.4673   20.7118 C   0  0  0  0  0  0  0  0  0  0  0  0
    7.3773    8.8224   21.4870 C   0  0  0  0  0  0  0  0  0  0  0  0
    8.4391    6.6439   21.0235 C   0  0  0  0  0  0  0  0  0  0  0  0
    9.6494   11.1353   20.4167 C   0  0  0  0  0  0  0  0  0  0  0  0
    8.1431    7.6829   21.9046 C   0  0  0  0  0  0  0  0  0  0  0  0
    7.7796   10.1314   21.5115 N   0  0  0  0  0  0  0  0  0  0  0  0
    9.2768    5.6183   21.4437 C   0  0  0  0  0  0  0  0  0  0  0  0
    8.6315    7.7322   23.1768 C   0  0  0  0  0  0  0  0  0  0  0  0
   13.0537    9.9821   20.5781 C   0  0  0  0  0  0  0  0  0  0  0  0
   10.3850    4.6575   23.2386 O   0  0  0  0  0  0  0  0  0  0  0  0
    4.2069    6.8450   20.7994 C   0  0  0  0  0  0  0  0  0  0  0  0
    3.0726   10.1043   19.8522 O   0  0  0  0  0  0  0  0  0  0  0  0
    5.5057    7.1196   21.1155 C   0  0  0  0  0  0  0  0  0  0  0  0
    7.0367   11.0229   21.9948 O   0  0  0  0  0  0  0  0  0  0  0  0
  1  8  4  0
  1 12  4  0
  2  9  1  0
  2 11  4  0
  2 25  4  0
  3 12  4  0
  3 14  1  0
  3 23  4  0
  4 13  4  0
  4 21  4  0
  4 24  1  0
  5  8  4  0
  5 23  4  0
  6 18  2  0
  7 15  4  0
  7 16  1  0
  7 27  4  0
  8 18  1  0
 10 18  1  0
 10 20  1  0
 11 15  4  0
 11 26  1  0
 13 22  4  0
 16 19  1  0
 16 20  2  0
 17 19  4  0
 17 21  4  0
 19 22  4  0
 20 28  1  0
 25 27  4  0
M  END
$$$$

 Created by Python create_sdf_string function

 28 30  0  0  0  0  0  0  0  0999 V2000
   11.4592   11.2893   18.7941 C   0  0  0  0  0  0  0  0  0  0  0  0
    3.4202    7.9009   20.3866 C   0  0  0  0  0  0  0  0  0  0  0  0
   13.5280   10.3522   19.3586 C   0  0  0  0  0  0  0  0  0  0  0  0
    9.6923    5.6468   22.7891 C   0  0  0  0  0  0  0  0  0  0  0  0
   11.7756   10.2554   20.8841 N   0  0  0  0  0  0  0  0  0  0  0  0
    8.9876   11.9370   19.8757 O   0  0  0  0  0  0  0  0  0  0  0  0
    6.0167    8.4478   21.1089 C   0  0  0  0  0  0  0  0  0  0  0  0
   11.0002   10.8890   20.0262 C   0  0  0  0  0  0  0  0  0  0  0  0
    2.1721    7.7393   20.0315 O   0  0  0  0  0  0  0  0  0  0  0  0
    9.1107   10.3880   21.3769 N   0  0  0  0  0  0  0  0  0  0  0  0
    3.9102    9.2008   20.3124 C   0  0  0  0  0  0  0  0  0  0  0  0
   12.7292   10.9960   18.4597 C   0  0  0  0  0  0  0  0  0  0  0  0
    9.3798    6.6793   23.6625 C   0  0  0  0  0  0  0  0  0  0  0  0
   14.7425   10.0739   19.0802 O   0  0  0  0  0  0  0  0  0  0  0  0
    5.1894    9.4673   20.7118 C   0  0  0  0  0  0  0  0  0  0  0  0
    7.3773    8.8224   21.4870 C   0  0  0  0  0  0  0  0  0  0  0  0
    8.4391    6.6439   21.0235 C   0  0  0  0  0  0  0  0  0  0  0  0
    9.6494   11.1353   20.4167 C   0  0  0  0  0  0  0  0  0  0  0  0
    8.1431    7.6829   21.9046 C   0  0  0  0  0  0  0  0  0  0  0  0
    7.7796   10.1314   21.5115 N   0  0  0  0  0  0  0  0  0  0  0  0
    9.2768    5.6183   21.4437 C   0  0  0  0  0  0  0  0  0  0  0  0
    8.6315    7.7322   23.1768 C   0  0  0  0  0  0  0  0  0  0  0  0
   13.0537    9.9821   20.5781 C   0  0  0  0  0  0  0  0  0  0  0  0
   10.3850    4.6575   23.2386 O   0  0  0  0  0  0  0  0  0  0  0  0
    4.2069    6.8450   20.7994 C   0  0  0  0  0  0  0  0  0  0  0  0
    3.0726   10.1043   19.8522 O   0  0  0  0  0  0  0  0  0  0  0  0
    5.5057    7.1196   21.1155 C   0  0  0  0  0  0  0  0  0  0  0  0
    7.0367   11.0229   21.9948 O   0  0  0  0  0  0  0  0  0  0  0  0
  1  8  4  0
  1 12  4  0
  2  9  1  0
  2 11  4  0
  2 25  4  0
  3 12  4  0
  3 14  1  0
  3 23  4  0
  4 13  4  0
  4 21  4  0
  4 24  1  0
  5  8  4  0
  5 23  4  0
  6 18  2  0
  7 15  4  0
  7 16  1  0
  7 27  4  0
  8 18  1  0
 10 18  1  0
 10 20  1  0
 11 15  4  0
 11 26  1  0
 13 22  4  0
 16 19  1  0
 16 20  2  0
 17 19  4  0
 17 21  4  0
 19 22  4  0
 20 28  1  0
 25 27  4  0
M  END
$$$$

 Created by Python create_sdf_string function

 28 30  0  0  0  0  0  0  0  0999 V2000
   11.4592   11.2893   18.7941 C   0  0  0  0  0  0  0  0  0  0  0  0
    3.4202    7.9009   20.3866 C   0  0  0  0  0  0  0  0  0  0  0  0
   13.5280   10.3522   19.3586 C   0  0  0  0  0  0  0  0  0  0  0  0
    9.6923    5.6468   22.7891 C   0  0  0  0  0  0  0  0  0  0  0  0
   11.7756   10.2554   20.8841 N   0  0  0  0  0  0  0  0  0  0  0  0
    8.9876   11.9370   19.8757 O   0  0  0  0  0  0  0  0  0  0  0  0
    6.0167    8.4478   21.1089 C   0  0  0  0  0  0  0  0  0  0  0  0
   11.0002   10.8890   20.0262 C   0  0  0  0  0  0  0  0  0  0  0  0
    2.1721    7.7393   20.0315 O   0  0  0  0  0  0  0  0  0  0  0  0
    9.1107   10.3880   21.3769 N   0  0  0  0  0  0  0  0  0  0  0  0
    3.9102    9.2008   20.3124 C   0  0  0  0  0  0  0  0  0  0  0  0
   12.7292   10.9960   18.4597 C   0  0  0  0  0  0  0  0  0  0  0  0
    9.3798    6.6793   23.6625 C   0  0  0  0  0  0  0  0  0  0  0  0
   14.7425   10.0739   19.0802 O   0  0  0  0  0  0  0  0  0  0  0  0
    5.1894    9.4673   20.7118 C   0  0  0  0  0  0  0  0  0  0  0  0
    7.3773    8.8224   21.4870 C   0  0  0  0  0  0  0  0  0  0  0  0
    8.4391    6.6439   21.0235 C   0  0  0  0  0  0  0  0  0  0  0  0
    9.6494   11.1353   20.4167 C   0  0  0  0  0  0  0  0  0  0  0  0
    8.1431    7.6829   21.9046 C   0  0  0  0  0  0  0  0  0  0  0  0
    7.7796   10.1314   21.5115 N   0  0  0  0  0  0  0  0  0  0  0  0
    9.2768    5.6183   21.4437 C   0  0  0  0  0  0  0  0  0  0  0  0
    8.6315    7.7322   23.1768 C   0  0  0  0  0  0  0  0  0  0  0  0
   13.0537    9.9821   20.5781 C   0  0  0  0  0  0  0  0  0  0  0  0
   10.3850    4.6575   23.2386 O   0  0  0  0  0  0  0  0  0  0  0  0
    4.2069    6.8450   20.7994 C   0  0  0  0  0  0  0  0  0  0  0  0
    3.0726   10.1043   19.8522 O   0  0  0  0  0  0  0  0  0  0  0  0
    5.5057    7.1196   21.1155 C   0  0  0  0  0  0  0  0  0  0  0  0
    7.0367   11.0229   21.9948 O   0  0  0  0  0  0  0  0  0  0  0  0
  1  8  4  0
  1 12  4  0
  2  9  1  0
  2 11  4  0
  2 25  4  0
  3 12  4  0
  3 14  1  0
  3 23  4  0
  4 13  4  0
  4 21  4  0
  4 24  1  0
  5  8  4  0
  5 23  4  0
  6 18  2  0
  7 15  4  0
  7 16  1  0
  7 27  4  0
  8 18  1  0
 10 18  1  0
 10 20  1  0
 11 15  4  0
 11 26  1  0
 13 22  4  0
 16 19  1  0
 16 20  2  0
 17 19  4  0
 17 21  4  0
 19 22  4  0
 20 28  1  0
 25 27  4  0
M  END
$$$$

 Created by Python create_sdf_string function

 28 30  0  0  0  0  0  0  0  0999 V2000
   11.4592   11.2893   18.7941 C   0  0  0  0  0  0  0  0  0  0  0  0
    3.4202    7.9009   20.3866 C   0  0  0  0  0  0  0  0  0  0  0  0
   13.5280   10.3522   19.3586 C   0  0  0  0  0  0  0  0  0  0  0  0
    9.6923    5.6468   22.7891 C   0  0  0  0  0  0  0  0  0  0  0  0
   11.7756   10.2554   20.8841 N   0  0  0  0  0  0  0  0  0  0  0  0
    8.9876   11.9370   19.8757 O   0  0  0  0  0  0  0  0  0  0  0  0
    6.0167    8.4478   21.1089 C   0  0  0  0  0  0  0  0  0  0  0  0
   11.0002   10.8890   20.0262 C   0  0  0  0  0  0  0  0  0  0  0  0
    2.1721    7.7393   20.0315 O   0  0  0  0  0  0  0  0  0  0  0  0
    9.1107   10.3880   21.3769 N   0  0  0  0  0  0  0  0  0  0  0  0
    3.9102    9.2008   20.3124 C   0  0  0  0  0  0  0  0  0  0  0  0
   12.7292   10.9960   18.4597 C   0  0  0  0  0  0  0  0  0  0  0  0
    9.3798    6.6793   23.6625 C   0  0  0  0  0  0  0  0  0  0  0  0
   14.7425   10.0739   19.0802 O   0  0  0  0  0  0  0  0  0  0  0  0
    5.1894    9.4673   20.7118 C   0  0  0  0  0  0  0  0  0  0  0  0
    7.3773    8.8224   21.4870 C   0  0  0  0  0  0  0  0  0  0  0  0
    8.4391    6.6439   21.0235 C   0  0  0  0  0  0  0  0  0  0  0  0
    9.6494   11.1353   20.4167 C   0  0  0  0  0  0  0  0  0  0  0  0
    8.1431    7.6829   21.9046 C   0  0  0  0  0  0  0  0  0  0  0  0
    7.7796   10.1314   21.5115 N   0  0  0  0  0  0  0  0  0  0  0  0
    9.2768    5.6183   21.4437 C   0  0  0  0  0  0  0  0  0  0  0  0
    8.6315    7.7322   23.1768 C   0  0  0  0  0  0  0  0  0  0  0  0
   13.0537    9.9821   20.5781 C   0  0  0  0  0  0  0  0  0  0  0  0
   10.3850    4.6575   23.2386 O   0  0  0  0  0  0  0  0  0  0  0  0
    4.2069    6.8450   20.7994 C   0  0  0  0  0  0  0  0  0  0  0  0
    3.0726   10.1043   19.8522 O   0  0  0  0  0  0  0  0  0  0  0  0
    5.5057    7.1196   21.1155 C   0  0  0  0  0  0  0  0  0  0  0  0
    7.0367   11.0229   21.9948 O   0  0  0  0  0  0  0  0  0  0  0  0
  1  8  4  0
  1 12  4  0
  2  9  1  0
  2 11  4  0
  2 25  4  0
  3 12  4  0
  3 14  1  0
  3 23  4  0
  4 13  4  0
  4 21  4  0
  4 24  1  0
  5  8  4  0
  5 23  4  0
  6 18  2  0
  7 15  4  0
  7 16  1  0
  7 27  4  0
  8 18  1  0
 10 18  1  0
 10 20  1  0
 11 15  4  0
 11 26  1  0
 13 22  4  0
 16 19  1  0
 16 20  2  0
 17 19  4  0
 17 21  4  0
 19 22  4  0
 20 28  1  0
 25 27  4  0
M  END
$$$$

 Created by Python create_sdf_string function

 28 30  0  0  0  0  0  0  0  0999 V2000
   11.4592   11.2893   18.7941 C   0  0  0  0  0  0  0  0  0  0  0  0
    3.4202    7.9009   20.3866 C   0  0  0  0  0  0  0  0  0  0  0  0
   13.5280   10.3522   19.3586 C   0  0  0  0  0  0  0  0  0  0  0  0
    9.6923    5.6468   22.7891 C   0  0  0  0  0  0  0  0  0  0  0  0
   11.7756   10.2554   20.8841 N   0  0  0  0  0  0  0  0  0  0  0  0
    8.9876   11.9370   19.8757 O   0  0  0  0  0  0  0  0  0  0  0  0
    6.0167    8.4478   21.1089 C   0  0  0  0  0  0  0  0  0  0  0  0
   11.0002   10.8890   20.0262 C   0  0  0  0  0  0  0  0  0  0  0  0
    2.1721    7.7393   20.0315 O   0  0  0  0  0  0  0  0  0  0  0  0
    9.1107   10.3880   21.3769 N   0  0  0  0  0  0  0  0  0  0  0  0
    3.9102    9.2008   20.3124 C   0  0  0  0  0  0  0  0  0  0  0  0
   12.7292   10.9960   18.4597 C   0  0  0  0  0  0  0  0  0  0  0  0
    9.3798    6.6793   23.6625 C   0  0  0  0  0  0  0  0  0  0  0  0
   14.7425   10.0739   19.0802 O   0  0  0  0  0  0  0  0  0  0  0  0
    5.1894    9.4673   20.7118 C   0  0  0  0  0  0  0  0  0  0  0  0
    7.3773    8.8224   21.4870 C   0  0  0  0  0  0  0  0  0  0  0  0
    8.4391    6.6439   21.0235 C   0  0  0  0  0  0  0  0  0  0  0  0
    9.6494   11.1353   20.4167 C   0  0  0  0  0  0  0  0  0  0  0  0
    8.1431    7.6829   21.9046 C   0  0  0  0  0  0  0  0  0  0  0  0
    7.7796   10.1314   21.5115 N   0  0  0  0  0  0  0  0  0  0  0  0
    9.2768    5.6183   21.4437 C   0  0  0  0  0  0  0  0  0  0  0  0
    8.6315    7.7322   23.1768 C   0  0  0  0  0  0  0  0  0  0  0  0
   13.0537    9.9821   20.5781 C   0  0  0  0  0  0  0  0  0  0  0  0
   10.3850    4.6575   23.2386 O   0  0  0  0  0  0  0  0  0  0  0  0
    4.2069    6.8450   20.7994 C   0  0  0  0  0  0  0  0  0  0  0  0
    3.0726   10.1043   19.8522 O   0  0  0  0  0  0  0  0  0  0  0  0
    5.5057    7.1196   21.1155 C   0  0  0  0  0  0  0  0  0  0  0  0
    7.0367   11.0229   21.9948 O   0  0  0  0  0  0  0  0  0  0  0  0
  1  8  4  0
  1 12  4  0
  2  9  1  0
  2 11  4  0
  2 25  4  0
  3 12  4  0
  3 14  1  0
  3 23  4  0
  4 13  4  0
  4 21  4  0
  4 24  1  0
  5  8  4  0
  5 23  4  0
  6 18  2  0
  7 15  4  0
  7 16  1  0
  7 27  4  0
  8 18  1  0
 10 18  1  0
 10 20  1  0
 11 15  4  0
 11 26  1  0
 13 22  4  0
 16 19  1  0
 16 20  2  0
 17 19  4  0
 17 21  4  0
 19 22  4  0
 20 28  1  0
 25 27  4  0
M  END
$$$$

 Created by Python create_sdf_string function

 28 30  0  0  0  0  0  0  0  0999 V2000
   11.4592   11.2893   18.7941 C   0  0  0  0  0  0  0  0  0  0  0  0
    3.4202    7.9009   20.3866 C   0  0  0  0  0  0  0  0  0  0  0  0
   13.5280   10.3522   19.3586 C   0  0  0  0  0  0  0  0  0  0  0  0
    9.6923    5.6468   22.7891 C   0  0  0  0  0  0  0  0  0  0  0  0
   11.7756   10.2554   20.8841 N   0  0  0  0  0  0  0  0  0  0  0  0
    8.9876   11.9370   19.8757 O   0  0  0  0  0  0  0  0  0  0  0  0
    6.0167    8.4478   21.1089 C   0  0  0  0  0  0  0  0  0  0  0  0
   11.0002   10.8890   20.0262 C   0  0  0  0  0  0  0  0  0  0  0  0
    2.1721    7.7393   20.0315 O   0  0  0  0  0  0  0  0  0  0  0  0
    9.1107   10.3880   21.3769 N   0  0  0  0  0  0  0  0  0  0  0  0
    3.9102    9.2008   20.3124 C   0  0  0  0  0  0  0  0  0  0  0  0
   12.7292   10.9960   18.4597 C   0  0  0  0  0  0  0  0  0  0  0  0
    9.3798    6.6793   23.6625 C   0  0  0  0  0  0  0  0  0  0  0  0
   14.7425   10.0739   19.0802 O   0  0  0  0  0  0  0  0  0  0  0  0
    5.1894    9.4673   20.7118 C   0  0  0  0  0  0  0  0  0  0  0  0
    7.3773    8.8224   21.4870 C   0  0  0  0  0  0  0  0  0  0  0  0
    8.4391    6.6439   21.0235 C   0  0  0  0  0  0  0  0  0  0  0  0
    9.6494   11.1353   20.4167 C   0  0  0  0  0  0  0  0  0  0  0  0
    8.1431    7.6829   21.9046 C   0  0  0  0  0  0  0  0  0  0  0  0
    7.7796   10.1314   21.5115 N   0  0  0  0  0  0  0  0  0  0  0  0
    9.2768    5.6183   21.4437 C   0  0  0  0  0  0  0  0  0  0  0  0
    8.6315    7.7322   23.1768 C   0  0  0  0  0  0  0  0  0  0  0  0
   13.0537    9.9821   20.5781 C   0  0  0  0  0  0  0  0  0  0  0  0
   10.3850    4.6575   23.2386 O   0  0  0  0  0  0  0  0  0  0  0  0
    4.2069    6.8450   20.7994 C   0  0  0  0  0  0  0  0  0  0  0  0
    3.0726   10.1043   19.8522 O   0  0  0  0  0  0  0  0  0  0  0  0
    5.5057    7.1196   21.1155 C   0  0  0  0  0  0  0  0  0  0  0  0
    7.0367   11.0229   21.9948 O   0  0  0  0  0  0  0  0  0  0  0  0
  1  8  4  0
  1 12  4  0
  2  9  1  0
  2 11  4  0
  2 25  4  0
  3 12  4  0
  3 14  1  0
  3 23  4  0
  4 13  4  0
  4 21  4  0
  4 24  1  0
  5  8  4  0
  5 23  4  0
  6 18  2  0
  7 15  4  0
  7 16  1  0
  7 27  4  0
  8 18  1  0
 10 18  1  0
 10 20  1  0
 11 15  4  0
 11 26  1  0
 13 22  4  0
 16 19  1  0
 16 20  2  0
 17 19  4  0
 17 21  4  0
 19 22  4  0
 20 28  1  0
 25 27  4  0
M  END
$$$$

 Created by Python create_sdf_string function

 28 30  0  0  0  0  0  0  0  0999 V2000
   11.4592   11.2893   18.7941 C   0  0  0  0  0  0  0  0  0  0  0  0
    3.4202    7.9009   20.3866 C   0  0  0  0  0  0  0  0  0  0  0  0
   13.5280   10.3522   19.3586 C   0  0  0  0  0  0  0  0  0  0  0  0
    9.6923    5.6468   22.7891 C   0  0  0  0  0  0  0  0  0  0  0  0
   11.7756   10.2554   20.8841 N   0  0  0  0  0  0  0  0  0  0  0  0
    8.9876   11.9370   19.8757 O   0  0  0  0  0  0  0  0  0  0  0  0
    6.0167    8.4478   21.1089 C   0  0  0  0  0  0  0  0  0  0  0  0
   11.0002   10.8890   20.0262 C   0  0  0  0  0  0  0  0  0  0  0  0
    2.1721    7.7393   20.0315 O   0  0  0  0  0  0  0  0  0  0  0  0
    9.1107   10.3880   21.3769 N   0  0  0  0  0  0  0  0  0  0  0  0
    3.9102    9.2008   20.3124 C   0  0  0  0  0  0  0  0  0  0  0  0
   12.7292   10.9960   18.4597 C   0  0  0  0  0  0  0  0  0  0  0  0
    9.3798    6.6793   23.6625 C   0  0  0  0  0  0  0  0  0  0  0  0
   14.7425   10.0739   19.0802 O   0  0  0  0  0  0  0  0  0  0  0  0
    5.1894    9.4673   20.7118 C   0  0  0  0  0  0  0  0  0  0  0  0
    7.3773    8.8224   21.4870 C   0  0  0  0  0  0  0  0  0  0  0  0
    8.4391    6.6439   21.0235 C   0  0  0  0  0  0  0  0  0  0  0  0
    9.6494   11.1353   20.4167 C   0  0  0  0  0  0  0  0  0  0  0  0
    8.1431    7.6829   21.9046 C   0  0  0  0  0  0  0  0  0  0  0  0
    7.7796   10.1314   21.5115 N   0  0  0  0  0  0  0  0  0  0  0  0
    9.2768    5.6183   21.4437 C   0  0  0  0  0  0  0  0  0  0  0  0
    8.6315    7.7322   23.1768 C   0  0  0  0  0  0  0  0  0  0  0  0
   13.0537    9.9821   20.5781 C   0  0  0  0  0  0  0  0  0  0  0  0
   10.3850    4.6575   23.2386 O   0  0  0  0  0  0  0  0  0  0  0  0
    4.2069    6.8450   20.7994 C   0  0  0  0  0  0  0  0  0  0  0  0
    3.0726   10.1043   19.8522 O   0  0  0  0  0  0  0  0  0  0  0  0
    5.5057    7.1196   21.1155 C   0  0  0  0  0  0  0  0  0  0  0  0
    7.0367   11.0229   21.9948 O   0  0  0  0  0  0  0  0  0  0  0  0
  1  8  4  0
  1 12  4  0
  2  9  1  0
  2 11  4  0
  2 25  4  0
  3 12  4  0
  3 14  1  0
  3 23  4  0
  4 13  4  0
  4 21  4  0
  4 24  1  0
  5  8  4  0
  5 23  4  0
  6 18  2  0
  7 15  4  0
  7 16  1  0
  7 27  4  0
  8 18  1  0
 10 18  1  0
 10 20  1  0
 11 15  4  0
 11 26  1  0
 13 22  4  0
 16 19  1  0
 16 20  2  0
 17 19  4  0
 17 21  4  0
 19 22  4  0
 20 28  1  0
 25 27  4  0
M  END
$$$$

 Created by Python create_sdf_string function

 28 30  0  0  0  0  0  0  0  0999 V2000
   11.4592   11.2893   18.7941 C   0  0  0  0  0  0  0  0  0  0  0  0
    3.4202    7.9009   20.3866 C   0  0  0  0  0  0  0  0  0  0  0  0
   13.5280   10.3522   19.3586 C   0  0  0  0  0  0  0  0  0  0  0  0
    9.6923    5.6468   22.7891 C   0  0  0  0  0  0  0  0  0  0  0  0
   11.7756   10.2554   20.8841 N   0  0  0  0  0  0  0  0  0  0  0  0
    8.9876   11.9370   19.8757 O   0  0  0  0  0  0  0  0  0  0  0  0
    6.0167    8.4478   21.1089 C   0  0  0  0  0  0  0  0  0  0  0  0
   11.0002   10.8890   20.0262 C   0  0  0  0  0  0  0  0  0  0  0  0
    2.1721    7.7393   20.0315 O   0  0  0  0  0  0  0  0  0  0  0  0
    9.1107   10.3880   21.3769 N   0  0  0  0  0  0  0  0  0  0  0  0
    3.9102    9.2008   20.3124 C   0  0  0  0  0  0  0  0  0  0  0  0
   12.7292   10.9960   18.4597 C   0  0  0  0  0  0  0  0  0  0  0  0
    9.3798    6.6793   23.6625 C   0  0  0  0  0  0  0  0  0  0  0  0
   14.7425   10.0739   19.0802 O   0  0  0  0  0  0  0  0  0  0  0  0
    5.1894    9.4673   20.7118 C   0  0  0  0  0  0  0  0  0  0  0  0
    7.3773    8.8224   21.4870 C   0  0  0  0  0  0  0  0  0  0  0  0
    8.4391    6.6439   21.0235 C   0  0  0  0  0  0  0  0  0  0  0  0
    9.6494   11.1353   20.4167 C   0  0  0  0  0  0  0  0  0  0  0  0
    8.1431    7.6829   21.9046 C   0  0  0  0  0  0  0  0  0  0  0  0
    7.7796   10.1314   21.5115 N   0  0  0  0  0  0  0  0  0  0  0  0
    9.2768    5.6183   21.4437 C   0  0  0  0  0  0  0  0  0  0  0  0
    8.6315    7.7322   23.1768 C   0  0  0  0  0  0  0  0  0  0  0  0
   13.0537    9.9821   20.5781 C   0  0  0  0  0  0  0  0  0  0  0  0
   10.3850    4.6575   23.2386 O   0  0  0  0  0  0  0  0  0  0  0  0
    4.2069    6.8450   20.7994 C   0  0  0  0  0  0  0  0  0  0  0  0
    3.0726   10.1043   19.8522 O   0  0  0  0  0  0  0  0  0  0  0  0
    5.5057    7.1196   21.1155 C   0  0  0  0  0  0  0  0  0  0  0  0
    7.0367   11.0229   21.9948 O   0  0  0  0  0  0  0  0  0  0  0  0
  1  8  4  0
  1 12  4  0
  2  9  1  0
  2 11  4  0
  2 25  4  0
  3 12  4  0
  3 14  1  0
  3 23  4  0
  4 13  4  0
  4 21  4  0
  4 24  1  0
  5  8  4  0
  5 23  4  0
  6 18  2  0
  7 15  4  0
  7 16  1  0
  7 27  4  0
  8 18  1  0
 10 18  1  0
 10 20  1  0
 11 15  4  0
 11 26  1  0
 13 22  4  0
 16 19  1  0
 16 20  2  0
 17 19  4  0
 17 21  4  0
 19 22  4  0
 20 28  1  0
 25 27  4  0
M  END
$$$$

 Created by Python create_sdf_string function

 28 30  0  0  0  0  0  0  0  0999 V2000
   11.4592   11.2893   18.7941 C   0  0  0  0  0  0  0  0  0  0  0  0
    3.4202    7.9009   20.3866 C   0  0  0  0  0  0  0  0  0  0  0  0
   13.5280   10.3522   19.3586 C   0  0  0  0  0  0  0  0  0  0  0  0
    9.6923    5.6468   22.7891 C   0  0  0  0  0  0  0  0  0  0  0  0
   11.7756   10.2554   20.8841 N   0  0  0  0  0  0  0  0  0  0  0  0
    8.9876   11.9370   19.8757 O   0  0  0  0  0  0  0  0  0  0  0  0
    6.0167    8.4478   21.1089 C   0  0  0  0  0  0  0  0  0  0  0  0
   11.0002   10.8890   20.0262 C   0  0  0  0  0  0  0  0  0  0  0  0
    2.1721    7.7393   20.0315 O   0  0  0  0  0  0  0  0  0  0  0  0
    9.1107   10.3880   21.3769 N   0  0  0  0  0  0  0  0  0  0  0  0
    3.9102    9.2008   20.3124 C   0  0  0  0  0  0  0  0  0  0  0  0
   12.7292   10.9960   18.4597 C   0  0  0  0  0  0  0  0  0  0  0  0
    9.3798    6.6793   23.6625 C   0  0  0  0  0  0  0  0  0  0  0  0
   14.7425   10.0739   19.0802 O   0  0  0  0  0  0  0  0  0  0  0  0
    5.1894    9.4673   20.7118 C   0  0  0  0  0  0  0  0  0  0  0  0
    7.3773    8.8224   21.4870 C   0  0  0  0  0  0  0  0  0  0  0  0
    8.4391    6.6439   21.0235 C   0  0  0  0  0  0  0  0  0  0  0  0
    9.6494   11.1353   20.4167 C   0  0  0  0  0  0  0  0  0  0  0  0
    8.1431    7.6829   21.9046 C   0  0  0  0  0  0  0  0  0  0  0  0
    7.7796   10.1314   21.5115 N   0  0  0  0  0  0  0  0  0  0  0  0
    9.2768    5.6183   21.4437 C   0  0  0  0  0  0  0  0  0  0  0  0
    8.6315    7.7322   23.1768 C   0  0  0  0  0  0  0  0  0  0  0  0
   13.0537    9.9821   20.5781 C   0  0  0  0  0  0  0  0  0  0  0  0
   10.3850    4.6575   23.2386 O   0  0  0  0  0  0  0  0  0  0  0  0
    4.2069    6.8450   20.7994 C   0  0  0  0  0  0  0  0  0  0  0  0
    3.0726   10.1043   19.8522 O   0  0  0  0  0  0  0  0  0  0  0  0
    5.5057    7.1196   21.1155 C   0  0  0  0  0  0  0  0  0  0  0  0
    7.0367   11.0229   21.9948 O   0  0  0  0  0  0  0  0  0  0  0  0
  1  8  4  0
  1 12  4  0
  2  9  1  0
  2 11  4  0
  2 25  4  0
  3 12  4  0
  3 14  1  0
  3 23  4  0
  4 13  4  0
  4 21  4  0
  4 24  1  0
  5  8  4  0
  5 23  4  0
  6 18  2  0
  7 15  4  0
  7 16  1  0
  7 27  4  0
  8 18  1  0
 10 18  1  0
 10 20  1  0
 11 15  4  0
 11 26  1  0
 13 22  4  0
 16 19  1  0
 16 20  2  0
 17 19  4  0
 17 21  4  0
 19 22  4  0
 20 28  1  0
 25 27  4  0
M  END
$$$$

 Created by Python create_sdf_string function

 28 30  0  0  0  0  0  0  0  0999 V2000
   11.4592   11.2893   18.7941 C   0  0  0  0  0  0  0  0  0  0  0  0
    3.4202    7.9009   20.3866 C   0  0  0  0  0  0  0  0  0  0  0  0
   13.5280   10.3522   19.3586 C   0  0  0  0  0  0  0  0  0  0  0  0
    9.6923    5.6468   22.7891 C   0  0  0  0  0  0  0  0  0  0  0  0
   11.7756   10.2554   20.8841 N   0  0  0  0  0  0  0  0  0  0  0  0
    8.9876   11.9370   19.8757 O   0  0  0  0  0  0  0  0  0  0  0  0
    6.0167    8.4478   21.1089 C   0  0  0  0  0  0  0  0  0  0  0  0
   11.0002   10.8890   20.0262 C   0  0  0  0  0  0  0  0  0  0  0  0
    2.1721    7.7393   20.0315 O   0  0  0  0  0  0  0  0  0  0  0  0
    9.1107   10.3880   21.3769 N   0  0  0  0  0  0  0  0  0  0  0  0
    3.9102    9.2008   20.3124 C   0  0  0  0  0  0  0  0  0  0  0  0
   12.7292   10.9960   18.4597 C   0  0  0  0  0  0  0  0  0  0  0  0
    9.3798    6.6793   23.6625 C   0  0  0  0  0  0  0  0  0  0  0  0
   14.7425   10.0739   19.0802 O   0  0  0  0  0  0  0  0  0  0  0  0
    5.1894    9.4673   20.7118 C   0  0  0  0  0  0  0  0  0  0  0  0
    7.3773    8.8224   21.4870 C   0  0  0  0  0  0  0  0  0  0  0  0
    8.4391    6.6439   21.0235 C   0  0  0  0  0  0  0  0  0  0  0  0
    9.6494   11.1353   20.4167 C   0  0  0  0  0  0  0  0  0  0  0  0
    8.1431    7.6829   21.9046 C   0  0  0  0  0  0  0  0  0  0  0  0
    7.7796   10.1314   21.5115 N   0  0  0  0  0  0  0  0  0  0  0  0
    9.2768    5.6183   21.4437 C   0  0  0  0  0  0  0  0  0  0  0  0
    8.6315    7.7322   23.1768 C   0  0  0  0  0  0  0  0  0  0  0  0
   13.0537    9.9821   20.5781 C   0  0  0  0  0  0  0  0  0  0  0  0
   10.3850    4.6575   23.2386 O   0  0  0  0  0  0  0  0  0  0  0  0
    4.2069    6.8450   20.7994 C   0  0  0  0  0  0  0  0  0  0  0  0
    3.0726   10.1043   19.8522 O   0  0  0  0  0  0  0  0  0  0  0  0
    5.5057    7.1196   21.1155 C   0  0  0  0  0  0  0  0  0  0  0  0
    7.0367   11.0229   21.9948 O   0  0  0  0  0  0  0  0  0  0  0  0
  1  8  4  0
  1 12  4  0
  2  9  1  0
  2 11  4  0
  2 25  4  0
  3 12  4  0
  3 14  1  0
  3 23  4  0
  4 13  4  0
  4 21  4  0
  4 24  1  0
  5  8  4  0
  5 23  4  0
  6 18  2  0
  7 15  4  0
  7 16  1  0
  7 27  4  0
  8 18  1  0
 10 18  1  0
 10 20  1  0
 11 15  4  0
 11 26  1  0
 13 22  4  0
 16 19  1  0
 16 20  2  0
 17 19  4  0
 17 21  4  0
 19 22  4  0
 20 28  1  0
 25 27  4  0
M  END
$$$$

 Created by Python create_sdf_string function

 28 30  0  0  0  0  0  0  0  0999 V2000
   11.4592   11.2893   18.7941 C   0  0  0  0  0  0  0  0  0  0  0  0
    3.4202    7.9009   20.3866 C   0  0  0  0  0  0  0  0  0  0  0  0
   13.5280   10.3522   19.3586 C   0  0  0  0  0  0  0  0  0  0  0  0
    9.6923    5.6468   22.7891 C   0  0  0  0  0  0  0  0  0  0  0  0
   11.7756   10.2554   20.8841 N   0  0  0  0  0  0  0  0  0  0  0  0
    8.9876   11.9370   19.8757 O   0  0  0  0  0  0  0  0  0  0  0  0
    6.0167    8.4478   21.1089 C   0  0  0  0  0  0  0  0  0  0  0  0
   11.0002   10.8890   20.0262 C   0  0  0  0  0  0  0  0  0  0  0  0
    2.1721    7.7393   20.0315 O   0  0  0  0  0  0  0  0  0  0  0  0
    9.1107   10.3880   21.3769 N   0  0  0  0  0  0  0  0  0  0  0  0
    3.9102    9.2008   20.3124 C   0  0  0  0  0  0  0  0  0  0  0  0
   12.7292   10.9960   18.4597 C   0  0  0  0  0  0  0  0  0  0  0  0
    9.3798    6.6793   23.6625 C   0  0  0  0  0  0  0  0  0  0  0  0
   14.7425   10.0739   19.0802 O   0  0  0  0  0  0  0  0  0  0  0  0
    5.1894    9.4673   20.7118 C   0  0  0  0  0  0  0  0  0  0  0  0
    7.3773    8.8224   21.4870 C   0  0  0  0  0  0  0  0  0  0  0  0
    8.4391    6.6439   21.0235 C   0  0  0  0  0  0  0  0  0  0  0  0
    9.6494   11.1353   20.4167 C   0  0  0  0  0  0  0  0  0  0  0  0
    8.1431    7.6829   21.9046 C   0  0  0  0  0  0  0  0  0  0  0  0
    7.7796   10.1314   21.5115 N   0  0  0  0  0  0  0  0  0  0  0  0
    9.2768    5.6183   21.4437 C   0  0  0  0  0  0  0  0  0  0  0  0
    8.6315    7.7322   23.1768 C   0  0  0  0  0  0  0  0  0  0  0  0
   13.0537    9.9821   20.5781 C   0  0  0  0  0  0  0  0  0  0  0  0
   10.3850    4.6575   23.2386 O   0  0  0  0  0  0  0  0  0  0  0  0
    4.2069    6.8450   20.7994 C   0  0  0  0  0  0  0  0  0  0  0  0
    3.0726   10.1043   19.8522 O   0  0  0  0  0  0  0  0  0  0  0  0
    5.5057    7.1196   21.1155 C   0  0  0  0  0  0  0  0  0  0  0  0
    7.0367   11.0229   21.9948 O   0  0  0  0  0  0  0  0  0  0  0  0
  1  8  4  0
  1 12  4  0
  2  9  1  0
  2 11  4  0
  2 25  4  0
  3 12  4  0
  3 14  1  0
  3 23  4  0
  4 13  4  0
  4 21  4  0
  4 24  1  0
  5  8  4  0
  5 23  4  0
  6 18  2  0
  7 15  4  0
  7 16  1  0
  7 27  4  0
  8 18  1  0
 10 18  1  0
 10 20  1  0
 11 15  4  0
 11 26  1  0
 13 22  4  0
 16 19  1  0
 16 20  2  0
 17 19  4  0
 17 21  4  0
 19 22  4  0
 20 28  1  0
 25 27  4  0
M  END
$$$$

 Created by Python create_sdf_string function

 28 30  0  0  0  0  0  0  0  0999 V2000
   11.4592   11.2893   18.7941 C   0  0  0  0  0  0  0  0  0  0  0  0
    3.4202    7.9009   20.3866 C   0  0  0  0  0  0  0  0  0  0  0  0
   13.5280   10.3522   19.3586 C   0  0  0  0  0  0  0  0  0  0  0  0
    9.6923    5.6468   22.7891 C   0  0  0  0  0  0  0  0  0  0  0  0
   11.7756   10.2554   20.8841 N   0  0  0  0  0  0  0  0  0  0  0  0
    8.9876   11.9370   19.8757 O   0  0  0  0  0  0  0  0  0  0  0  0
    6.0167    8.4478   21.1089 C   0  0  0  0  0  0  0  0  0  0  0  0
   11.0002   10.8890   20.0262 C   0  0  0  0  0  0  0  0  0  0  0  0
    2.1721    7.7393   20.0315 O   0  0  0  0  0  0  0  0  0  0  0  0
    9.1107   10.3880   21.3769 N   0  0  0  0  0  0  0  0  0  0  0  0
    3.9102    9.2008   20.3124 C   0  0  0  0  0  0  0  0  0  0  0  0
   12.7292   10.9960   18.4597 C   0  0  0  0  0  0  0  0  0  0  0  0
    9.3798    6.6793   23.6625 C   0  0  0  0  0  0  0  0  0  0  0  0
   14.7425   10.0739   19.0802 O   0  0  0  0  0  0  0  0  0  0  0  0
    5.1894    9.4673   20.7118 C   0  0  0  0  0  0  0  0  0  0  0  0
    7.3773    8.8224   21.4870 C   0  0  0  0  0  0  0  0  0  0  0  0
    8.4391    6.6439   21.0235 C   0  0  0  0  0  0  0  0  0  0  0  0
    9.6494   11.1353   20.4167 C   0  0  0  0  0  0  0  0  0  0  0  0
    8.1431    7.6829   21.9046 C   0  0  0  0  0  0  0  0  0  0  0  0
    7.7796   10.1314   21.5115 N   0  0  0  0  0  0  0  0  0  0  0  0
    9.2768    5.6183   21.4437 C   0  0  0  0  0  0  0  0  0  0  0  0
    8.6315    7.7322   23.1768 C   0  0  0  0  0  0  0  0  0  0  0  0
   13.0537    9.9821   20.5781 C   0  0  0  0  0  0  0  0  0  0  0  0
   10.3850    4.6575   23.2386 O   0  0  0  0  0  0  0  0  0  0  0  0
    4.2069    6.8450   20.7994 C   0  0  0  0  0  0  0  0  0  0  0  0
    3.0726   10.1043   19.8522 O   0  0  0  0  0  0  0  0  0  0  0  0
    5.5057    7.1196   21.1155 C   0  0  0  0  0  0  0  0  0  0  0  0
    7.0367   11.0229   21.9948 O   0  0  0  0  0  0  0  0  0  0  0  0
  1  8  4  0
  1 12  4  0
  2  9  1  0
  2 11  4  0
  2 25  4  0
  3 12  4  0
  3 14  1  0
  3 23  4  0
  4 13  4  0
  4 21  4  0
  4 24  1  0
  5  8  4  0
  5 23  4  0
  6 18  2  0
  7 15  4  0
  7 16  1  0
  7 27  4  0
  8 18  1  0
 10 18  1  0
 10 20  1  0
 11 15  4  0
 11 26  1  0
 13 22  4  0
 16 19  1  0
 16 20  2  0
 17 19  4  0
 17 21  4  0
 19 22  4  0
 20 28  1  0
 25 27  4  0
M  END
$$$$

 Created by Python create_sdf_string function

 28 30  0  0  0  0  0  0  0  0999 V2000
   11.4592   11.2893   18.7941 C   0  0  0  0  0  0  0  0  0  0  0  0
    3.4202    7.9009   20.3866 C   0  0  0  0  0  0  0  0  0  0  0  0
   13.5280   10.3522   19.3586 C   0  0  0  0  0  0  0  0  0  0  0  0
    9.6923    5.6468   22.7891 C   0  0  0  0  0  0  0  0  0  0  0  0
   11.7756   10.2554   20.8841 N   0  0  0  0  0  0  0  0  0  0  0  0
    8.9876   11.9370   19.8757 O   0  0  0  0  0  0  0  0  0  0  0  0
    6.0167    8.4478   21.1089 C   0  0  0  0  0  0  0  0  0  0  0  0
   11.0002   10.8890   20.0262 C   0  0  0  0  0  0  0  0  0  0  0  0
    2.1721    7.7393   20.0315 O   0  0  0  0  0  0  0  0  0  0  0  0
    9.1107   10.3880   21.3769 N   0  0  0  0  0  0  0  0  0  0  0  0
    3.9102    9.2008   20.3124 C   0  0  0  0  0  0  0  0  0  0  0  0
   12.7292   10.9960   18.4597 C   0  0  0  0  0  0  0  0  0  0  0  0
    9.3798    6.6793   23.6625 C   0  0  0  0  0  0  0  0  0  0  0  0
   14.7425   10.0739   19.0802 O   0  0  0  0  0  0  0  0  0  0  0  0
    5.1894    9.4673   20.7118 C   0  0  0  0  0  0  0  0  0  0  0  0
    7.3773    8.8224   21.4870 C   0  0  0  0  0  0  0  0  0  0  0  0
    8.4391    6.6439   21.0235 C   0  0  0  0  0  0  0  0  0  0  0  0
    9.6494   11.1353   20.4167 C   0  0  0  0  0  0  0  0  0  0  0  0
    8.1431    7.6829   21.9046 C   0  0  0  0  0  0  0  0  0  0  0  0
    7.7796   10.1314   21.5115 N   0  0  0  0  0  0  0  0  0  0  0  0
    9.2768    5.6183   21.4437 C   0  0  0  0  0  0  0  0  0  0  0  0
    8.6315    7.7322   23.1768 C   0  0  0  0  0  0  0  0  0  0  0  0
   13.0537    9.9821   20.5781 C   0  0  0  0  0  0  0  0  0  0  0  0
   10.3850    4.6575   23.2386 O   0  0  0  0  0  0  0  0  0  0  0  0
    4.2069    6.8450   20.7994 C   0  0  0  0  0  0  0  0  0  0  0  0
    3.0726   10.1043   19.8522 O   0  0  0  0  0  0  0  0  0  0  0  0
    5.5057    7.1196   21.1155 C   0  0  0  0  0  0  0  0  0  0  0  0
    7.0367   11.0229   21.9948 O   0  0  0  0  0  0  0  0  0  0  0  0
  1  8  4  0
  1 12  4  0
  2  9  1  0
  2 11  4  0
  2 25  4  0
  3 12  4  0
  3 14  1  0
  3 23  4  0
  4 13  4  0
  4 21  4  0
  4 24  1  0
  5  8  4  0
  5 23  4  0
  6 18  2  0
  7 15  4  0
  7 16  1  0
  7 27  4  0
  8 18  1  0
 10 18  1  0
 10 20  1  0
 11 15  4  0
 11 26  1  0
 13 22  4  0
 16 19  1  0
 16 20  2  0
 17 19  4  0
 17 21  4  0
 19 22  4  0
 20 28  1  0
 25 27  4  0
M  END
$$$$

 Created by Python create_sdf_string function

 28 30  0  0  0  0  0  0  0  0999 V2000
   11.4592   11.2893   18.7941 C   0  0  0  0  0  0  0  0  0  0  0  0
    3.4202    7.9009   20.3866 C   0  0  0  0  0  0  0  0  0  0  0  0
   13.5280   10.3522   19.3586 C   0  0  0  0  0  0  0  0  0  0  0  0
    9.6923    5.6468   22.7891 C   0  0  0  0  0  0  0  0  0  0  0  0
   11.7756   10.2554   20.8841 N   0  0  0  0  0  0  0  0  0  0  0  0
    8.9876   11.9370   19.8757 O   0  0  0  0  0  0  0  0  0  0  0  0
    6.0167    8.4478   21.1089 C   0  0  0  0  0  0  0  0  0  0  0  0
   11.0002   10.8890   20.0262 C   0  0  0  0  0  0  0  0  0  0  0  0
    2.1721    7.7393   20.0315 O   0  0  0  0  0  0  0  0  0  0  0  0
    9.1107   10.3880   21.3769 N   0  0  0  0  0  0  0  0  0  0  0  0
    3.9102    9.2008   20.3124 C   0  0  0  0  0  0  0  0  0  0  0  0
   12.7292   10.9960   18.4597 C   0  0  0  0  0  0  0  0  0  0  0  0
    9.3798    6.6793   23.6625 C   0  0  0  0  0  0  0  0  0  0  0  0
   14.7425   10.0739   19.0802 O   0  0  0  0  0  0  0  0  0  0  0  0
    5.1894    9.4673   20.7118 C   0  0  0  0  0  0  0  0  0  0  0  0
    7.3773    8.8224   21.4870 C   0  0  0  0  0  0  0  0  0  0  0  0
    8.4391    6.6439   21.0235 C   0  0  0  0  0  0  0  0  0  0  0  0
    9.6494   11.1353   20.4167 C   0  0  0  0  0  0  0  0  0  0  0  0
    8.1431    7.6829   21.9046 C   0  0  0  0  0  0  0  0  0  0  0  0
    7.7796   10.1314   21.5115 N   0  0  0  0  0  0  0  0  0  0  0  0
    9.2768    5.6183   21.4437 C   0  0  0  0  0  0  0  0  0  0  0  0
    8.6315    7.7322   23.1768 C   0  0  0  0  0  0  0  0  0  0  0  0
   13.0537    9.9821   20.5781 C   0  0  0  0  0  0  0  0  0  0  0  0
   10.3850    4.6575   23.2386 O   0  0  0  0  0  0  0  0  0  0  0  0
    4.2069    6.8450   20.7994 C   0  0  0  0  0  0  0  0  0  0  0  0
    3.0726   10.1043   19.8522 O   0  0  0  0  0  0  0  0  0  0  0  0
    5.5057    7.1196   21.1155 C   0  0  0  0  0  0  0  0  0  0  0  0
    7.0367   11.0229   21.9948 O   0  0  0  0  0  0  0  0  0  0  0  0
  1  8  4  0
  1 12  4  0
  2  9  1  0
  2 11  4  0
  2 25  4  0
  3 12  4  0
  3 14  1  0
  3 23  4  0
  4 13  4  0
  4 21  4  0
  4 24  1  0
  5  8  4  0
  5 23  4  0
  6 18  2  0
  7 15  4  0
  7 16  1  0
  7 27  4  0
  8 18  1  0
 10 18  1  0
 10 20  1  0
 11 15  4  0
 11 26  1  0
 13 22  4  0
 16 19  1  0
 16 20  2  0
 17 19  4  0
 17 21  4  0
 19 22  4  0
 20 28  1  0
 25 27  4  0
M  END
$$$$

 Created by Python create_sdf_string function

 28 30  0  0  0  0  0  0  0  0999 V2000
   11.4592   11.2893   18.7941 C   0  0  0  0  0  0  0  0  0  0  0  0
    3.4202    7.9009   20.3866 C   0  0  0  0  0  0  0  0  0  0  0  0
   13.5280   10.3522   19.3586 C   0  0  0  0  0  0  0  0  0  0  0  0
    9.6923    5.6468   22.7891 C   0  0  0  0  0  0  0  0  0  0  0  0
   11.7756   10.2554   20.8841 N   0  0  0  0  0  0  0  0  0  0  0  0
    8.9876   11.9370   19.8757 O   0  0  0  0  0  0  0  0  0  0  0  0
    6.0167    8.4478   21.1089 C   0  0  0  0  0  0  0  0  0  0  0  0
   11.0002   10.8890   20.0262 C   0  0  0  0  0  0  0  0  0  0  0  0
    2.1721    7.7393   20.0315 O   0  0  0  0  0  0  0  0  0  0  0  0
    9.1107   10.3880   21.3769 N   0  0  0  0  0  0  0  0  0  0  0  0
    3.9102    9.2008   20.3124 C   0  0  0  0  0  0  0  0  0  0  0  0
   12.7292   10.9960   18.4597 C   0  0  0  0  0  0  0  0  0  0  0  0
    9.3798    6.6793   23.6625 C   0  0  0  0  0  0  0  0  0  0  0  0
   14.7425   10.0739   19.0802 O   0  0  0  0  0  0  0  0  0  0  0  0
    5.1894    9.4673   20.7118 C   0  0  0  0  0  0  0  0  0  0  0  0
    7.3773    8.8224   21.4870 C   0  0  0  0  0  0  0  0  0  0  0  0
    8.4391    6.6439   21.0235 C   0  0  0  0  0  0  0  0  0  0  0  0
    9.6494   11.1353   20.4167 C   0  0  0  0  0  0  0  0  0  0  0  0
    8.1431    7.6829   21.9046 C   0  0  0  0  0  0  0  0  0  0  0  0
    7.7796   10.1314   21.5115 N   0  0  0  0  0  0  0  0  0  0  0  0
    9.2768    5.6183   21.4437 C   0  0  0  0  0  0  0  0  0  0  0  0
    8.6315    7.7322   23.1768 C   0  0  0  0  0  0  0  0  0  0  0  0
   13.0537    9.9821   20.5781 C   0  0  0  0  0  0  0  0  0  0  0  0
   10.3850    4.6575   23.2386 O   0  0  0  0  0  0  0  0  0  0  0  0
    4.2069    6.8450   20.7994 C   0  0  0  0  0  0  0  0  0  0  0  0
    3.0726   10.1043   19.8522 O   0  0  0  0  0  0  0  0  0  0  0  0
    5.5057    7.1196   21.1155 C   0  0  0  0  0  0  0  0  0  0  0  0
    7.0367   11.0229   21.9948 O   0  0  0  0  0  0  0  0  0  0  0  0
  1  8  4  0
  1 12  4  0
  2  9  1  0
  2 11  4  0
  2 25  4  0
  3 12  4  0
  3 14  1  0
  3 23  4  0
  4 13  4  0
  4 21  4  0
  4 24  1  0
  5  8  4  0
  5 23  4  0
  6 18  2  0
  7 15  4  0
  7 16  1  0
  7 27  4  0
  8 18  1  0
 10 18  1  0
 10 20  1  0
 11 15  4  0
 11 26  1  0
 13 22  4  0
 16 19  1  0
 16 20  2  0
 17 19  4  0
 17 21  4  0
 19 22  4  0
 20 28  1  0
 25 27  4  0
M  END
$$$$

 Created by Python create_sdf_string function

 28 30  0  0  0  0  0  0  0  0999 V2000
   11.4592   11.2893   18.7941 C   0  0  0  0  0  0  0  0  0  0  0  0
    3.4202    7.9009   20.3866 C   0  0  0  0  0  0  0  0  0  0  0  0
   13.5280   10.3522   19.3586 C   0  0  0  0  0  0  0  0  0  0  0  0
    9.6923    5.6468   22.7891 C   0  0  0  0  0  0  0  0  0  0  0  0
   11.7756   10.2554   20.8841 N   0  0  0  0  0  0  0  0  0  0  0  0
    8.9876   11.9370   19.8757 O   0  0  0  0  0  0  0  0  0  0  0  0
    6.0167    8.4478   21.1089 C   0  0  0  0  0  0  0  0  0  0  0  0
   11.0002   10.8890   20.0262 C   0  0  0  0  0  0  0  0  0  0  0  0
    2.1721    7.7393   20.0315 O   0  0  0  0  0  0  0  0  0  0  0  0
    9.1107   10.3880   21.3769 N   0  0  0  0  0  0  0  0  0  0  0  0
    3.9102    9.2008   20.3124 C   0  0  0  0  0  0  0  0  0  0  0  0
   12.7292   10.9960   18.4597 C   0  0  0  0  0  0  0  0  0  0  0  0
    9.3798    6.6793   23.6625 C   0  0  0  0  0  0  0  0  0  0  0  0
   14.7425   10.0739   19.0802 O   0  0  0  0  0  0  0  0  0  0  0  0
    5.1894    9.4673   20.7118 C   0  0  0  0  0  0  0  0  0  0  0  0
    7.3773    8.8224   21.4870 C   0  0  0  0  0  0  0  0  0  0  0  0
    8.4391    6.6439   21.0235 C   0  0  0  0  0  0  0  0  0  0  0  0
    9.6494   11.1353   20.4167 C   0  0  0  0  0  0  0  0  0  0  0  0
    8.1431    7.6829   21.9046 C   0  0  0  0  0  0  0  0  0  0  0  0
    7.7796   10.1314   21.5115 N   0  0  0  0  0  0  0  0  0  0  0  0
    9.2768    5.6183   21.4437 C   0  0  0  0  0  0  0  0  0  0  0  0
    8.6315    7.7322   23.1768 C   0  0  0  0  0  0  0  0  0  0  0  0
   13.0537    9.9821   20.5781 C   0  0  0  0  0  0  0  0  0  0  0  0
   10.3850    4.6575   23.2386 O   0  0  0  0  0  0  0  0  0  0  0  0
    4.2069    6.8450   20.7994 C   0  0  0  0  0  0  0  0  0  0  0  0
    3.0726   10.1043   19.8522 O   0  0  0  0  0  0  0  0  0  0  0  0
    5.5057    7.1196   21.1155 C   0  0  0  0  0  0  0  0  0  0  0  0
    7.0367   11.0229   21.9948 O   0  0  0  0  0  0  0  0  0  0  0  0
  1  8  4  0
  1 12  4  0
  2  9  1  0
  2 11  4  0
  2 25  4  0
  3 12  4  0
  3 14  1  0
  3 23  4  0
  4 13  4  0
  4 21  4  0
  4 24  1  0
  5  8  4  0
  5 23  4  0
  6 18  2  0
  7 15  4  0
  7 16  1  0
  7 27  4  0
  8 18  1  0
 10 18  1  0
 10 20  1  0
 11 15  4  0
 11 26  1  0
 13 22  4  0
 16 19  1  0
 16 20  2  0
 17 19  4  0
 17 21  4  0
 19 22  4  0
 20 28  1  0
 25 27  4  0
M  END
$$$$

 Created by Python create_sdf_string function

 28 30  0  0  0  0  0  0  0  0999 V2000
   11.4592   11.2893   18.7941 C   0  0  0  0  0  0  0  0  0  0  0  0
    3.4202    7.9009   20.3866 C   0  0  0  0  0  0  0  0  0  0  0  0
   13.5280   10.3522   19.3586 C   0  0  0  0  0  0  0  0  0  0  0  0
    9.6923    5.6468   22.7891 C   0  0  0  0  0  0  0  0  0  0  0  0
   11.7756   10.2554   20.8841 N   0  0  0  0  0  0  0  0  0  0  0  0
    8.9876   11.9370   19.8757 O   0  0  0  0  0  0  0  0  0  0  0  0
    6.0167    8.4478   21.1089 C   0  0  0  0  0  0  0  0  0  0  0  0
   11.0002   10.8890   20.0262 C   0  0  0  0  0  0  0  0  0  0  0  0
    2.1721    7.7393   20.0315 O   0  0  0  0  0  0  0  0  0  0  0  0
    9.1107   10.3880   21.3769 N   0  0  0  0  0  0  0  0  0  0  0  0
    3.9102    9.2008   20.3124 C   0  0  0  0  0  0  0  0  0  0  0  0
   12.7292   10.9960   18.4597 C   0  0  0  0  0  0  0  0  0  0  0  0
    9.3798    6.6793   23.6625 C   0  0  0  0  0  0  0  0  0  0  0  0
   14.7425   10.0739   19.0802 O   0  0  0  0  0  0  0  0  0  0  0  0
    5.1894    9.4673   20.7118 C   0  0  0  0  0  0  0  0  0  0  0  0
    7.3773    8.8224   21.4870 C   0  0  0  0  0  0  0  0  0  0  0  0
    8.4391    6.6439   21.0235 C   0  0  0  0  0  0  0  0  0  0  0  0
    9.6494   11.1353   20.4167 C   0  0  0  0  0  0  0  0  0  0  0  0
    8.1431    7.6829   21.9046 C   0  0  0  0  0  0  0  0  0  0  0  0
    7.7796   10.1314   21.5115 N   0  0  0  0  0  0  0  0  0  0  0  0
    9.2768    5.6183   21.4437 C   0  0  0  0  0  0  0  0  0  0  0  0
    8.6315    7.7322   23.1768 C   0  0  0  0  0  0  0  0  0  0  0  0
   13.0537    9.9821   20.5781 C   0  0  0  0  0  0  0  0  0  0  0  0
   10.3850    4.6575   23.2386 O   0  0  0  0  0  0  0  0  0  0  0  0
    4.2069    6.8450   20.7994 C   0  0  0  0  0  0  0  0  0  0  0  0
    3.0726   10.1043   19.8522 O   0  0  0  0  0  0  0  0  0  0  0  0
    5.5057    7.1196   21.1155 C   0  0  0  0  0  0  0  0  0  0  0  0
    7.0367   11.0229   21.9948 O   0  0  0  0  0  0  0  0  0  0  0  0
  1  8  4  0
  1 12  4  0
  2  9  1  0
  2 11  4  0
  2 25  4  0
  3 12  4  0
  3 14  1  0
  3 23  4  0
  4 13  4  0
  4 21  4  0
  4 24  1  0
  5  8  4  0
  5 23  4  0
  6 18  2  0
  7 15  4  0
  7 16  1  0
  7 27  4  0
  8 18  1  0
 10 18  1  0
 10 20  1  0
 11 15  4  0
 11 26  1  0
 13 22  4  0
 16 19  1  0
 16 20  2  0
 17 19  4  0
 17 21  4  0
 19 22  4  0
 20 28  1  0
 25 27  4  0
M  END
$$$$

 Created by Python create_sdf_string function

 28 30  0  0  0  0  0  0  0  0999 V2000
   11.4592   11.2893   18.7941 C   0  0  0  0  0  0  0  0  0  0  0  0
    3.4202    7.9009   20.3866 C   0  0  0  0  0  0  0  0  0  0  0  0
   13.5280   10.3522   19.3586 C   0  0  0  0  0  0  0  0  0  0  0  0
    9.6923    5.6468   22.7891 C   0  0  0  0  0  0  0  0  0  0  0  0
   11.7756   10.2554   20.8841 N   0  0  0  0  0  0  0  0  0  0  0  0
    8.9876   11.9370   19.8757 O   0  0  0  0  0  0  0  0  0  0  0  0
    6.0167    8.4478   21.1089 C   0  0  0  0  0  0  0  0  0  0  0  0
   11.0002   10.8890   20.0262 C   0  0  0  0  0  0  0  0  0  0  0  0
    2.1721    7.7393   20.0315 O   0  0  0  0  0  0  0  0  0  0  0  0
    9.1107   10.3880   21.3769 N   0  0  0  0  0  0  0  0  0  0  0  0
    3.9102    9.2008   20.3124 C   0  0  0  0  0  0  0  0  0  0  0  0
   12.7292   10.9960   18.4597 C   0  0  0  0  0  0  0  0  0  0  0  0
    9.3798    6.6793   23.6625 C   0  0  0  0  0  0  0  0  0  0  0  0
   14.7425   10.0739   19.0802 O   0  0  0  0  0  0  0  0  0  0  0  0
    5.1894    9.4673   20.7118 C   0  0  0  0  0  0  0  0  0  0  0  0
    7.3773    8.8224   21.4870 C   0  0  0  0  0  0  0  0  0  0  0  0
    8.4391    6.6439   21.0235 C   0  0  0  0  0  0  0  0  0  0  0  0
    9.6494   11.1353   20.4167 C   0  0  0  0  0  0  0  0  0  0  0  0
    8.1431    7.6829   21.9046 C   0  0  0  0  0  0  0  0  0  0  0  0
    7.7796   10.1314   21.5115 N   0  0  0  0  0  0  0  0  0  0  0  0
    9.2768    5.6183   21.4437 C   0  0  0  0  0  0  0  0  0  0  0  0
    8.6315    7.7322   23.1768 C   0  0  0  0  0  0  0  0  0  0  0  0
   13.0537    9.9821   20.5781 C   0  0  0  0  0  0  0  0  0  0  0  0
   10.3850    4.6575   23.2386 O   0  0  0  0  0  0  0  0  0  0  0  0
    4.2069    6.8450   20.7994 C   0  0  0  0  0  0  0  0  0  0  0  0
    3.0726   10.1043   19.8522 O   0  0  0  0  0  0  0  0  0  0  0  0
    5.5057    7.1196   21.1155 C   0  0  0  0  0  0  0  0  0  0  0  0
    7.0367   11.0229   21.9948 O   0  0  0  0  0  0  0  0  0  0  0  0
  1  8  4  0
  1 12  4  0
  2  9  1  0
  2 11  4  0
  2 25  4  0
  3 12  4  0
  3 14  1  0
  3 23  4  0
  4 13  4  0
  4 21  4  0
  4 24  1  0
  5  8  4  0
  5 23  4  0
  6 18  2  0
  7 15  4  0
  7 16  1  0
  7 27  4  0
  8 18  1  0
 10 18  1  0
 10 20  1  0
 11 15  4  0
 11 26  1  0
 13 22  4  0
 16 19  1  0
 16 20  2  0
 17 19  4  0
 17 21  4  0
 19 22  4  0
 20 28  1  0
 25 27  4  0
M  END
$$$$

 Created by Python create_sdf_string function

 28 30  0  0  0  0  0  0  0  0999 V2000
   11.4592   11.2893   18.7941 C   0  0  0  0  0  0  0  0  0  0  0  0
    3.4202    7.9009   20.3866 C   0  0  0  0  0  0  0  0  0  0  0  0
   13.5280   10.3522   19.3586 C   0  0  0  0  0  0  0  0  0  0  0  0
    9.6923    5.6468   22.7891 C   0  0  0  0  0  0  0  0  0  0  0  0
   11.7756   10.2554   20.8841 N   0  0  0  0  0  0  0  0  0  0  0  0
    8.9876   11.9370   19.8757 O   0  0  0  0  0  0  0  0  0  0  0  0
    6.0167    8.4478   21.1089 C   0  0  0  0  0  0  0  0  0  0  0  0
   11.0002   10.8890   20.0262 C   0  0  0  0  0  0  0  0  0  0  0  0
    2.1721    7.7393   20.0315 O   0  0  0  0  0  0  0  0  0  0  0  0
    9.1107   10.3880   21.3769 N   0  0  0  0  0  0  0  0  0  0  0  0
    3.9102    9.2008   20.3124 C   0  0  0  0  0  0  0  0  0  0  0  0
   12.7292   10.9960   18.4597 C   0  0  0  0  0  0  0  0  0  0  0  0
    9.3798    6.6793   23.6625 C   0  0  0  0  0  0  0  0  0  0  0  0
   14.7425   10.0739   19.0802 O   0  0  0  0  0  0  0  0  0  0  0  0
    5.1894    9.4673   20.7118 C   0  0  0  0  0  0  0  0  0  0  0  0
    7.3773    8.8224   21.4870 C   0  0  0  0  0  0  0  0  0  0  0  0
    8.4391    6.6439   21.0235 C   0  0  0  0  0  0  0  0  0  0  0  0
    9.6494   11.1353   20.4167 C   0  0  0  0  0  0  0  0  0  0  0  0
    8.1431    7.6829   21.9046 C   0  0  0  0  0  0  0  0  0  0  0  0
    7.7796   10.1314   21.5115 N   0  0  0  0  0  0  0  0  0  0  0  0
    9.2768    5.6183   21.4437 C   0  0  0  0  0  0  0  0  0  0  0  0
    8.6315    7.7322   23.1768 C   0  0  0  0  0  0  0  0  0  0  0  0
   13.0537    9.9821   20.5781 C   0  0  0  0  0  0  0  0  0  0  0  0
   10.3850    4.6575   23.2386 O   0  0  0  0  0  0  0  0  0  0  0  0
    4.2069    6.8450   20.7994 C   0  0  0  0  0  0  0  0  0  0  0  0
    3.0726   10.1043   19.8522 O   0  0  0  0  0  0  0  0  0  0  0  0
    5.5057    7.1196   21.1155 C   0  0  0  0  0  0  0  0  0  0  0  0
    7.0367   11.0229   21.9948 O   0  0  0  0  0  0  0  0  0  0  0  0
  1  8  4  0
  1 12  4  0
  2  9  1  0
  2 11  4  0
  2 25  4  0
  3 12  4  0
  3 14  1  0
  3 23  4  0
  4 13  4  0
  4 21  4  0
  4 24  1  0
  5  8  4  0
  5 23  4  0
  6 18  2  0
  7 15  4  0
  7 16  1  0
  7 27  4  0
  8 18  1  0
 10 18  1  0
 10 20  1  0
 11 15  4  0
 11 26  1  0
 13 22  4  0
 16 19  1  0
 16 20  2  0
 17 19  4  0
 17 21  4  0
 19 22  4  0
 20 28  1  0
 25 27  4  0
M  END
$$$$

 Created by Python create_sdf_string function

 28 30  0  0  0  0  0  0  0  0999 V2000
   11.4592   11.2893   18.7941 C   0  0  0  0  0  0  0  0  0  0  0  0
    3.4202    7.9009   20.3866 C   0  0  0  0  0  0  0  0  0  0  0  0
   13.5280   10.3522   19.3586 C   0  0  0  0  0  0  0  0  0  0  0  0
    9.6923    5.6468   22.7891 C   0  0  0  0  0  0  0  0  0  0  0  0
   11.7756   10.2554   20.8841 N   0  0  0  0  0  0  0  0  0  0  0  0
    8.9876   11.9370   19.8757 O   0  0  0  0  0  0  0  0  0  0  0  0
    6.0167    8.4478   21.1089 C   0  0  0  0  0  0  0  0  0  0  0  0
   11.0002   10.8890   20.0262 C   0  0  0  0  0  0  0  0  0  0  0  0
    2.1721    7.7393   20.0315 O   0  0  0  0  0  0  0  0  0  0  0  0
    9.1107   10.3880   21.3769 N   0  0  0  0  0  0  0  0  0  0  0  0
    3.9102    9.2008   20.3124 C   0  0  0  0  0  0  0  0  0  0  0  0
   12.7292   10.9960   18.4597 C   0  0  0  0  0  0  0  0  0  0  0  0
    9.3798    6.6793   23.6625 C   0  0  0  0  0  0  0  0  0  0  0  0
   14.7425   10.0739   19.0802 O   0  0  0  0  0  0  0  0  0  0  0  0
    5.1894    9.4673   20.7118 C   0  0  0  0  0  0  0  0  0  0  0  0
    7.3773    8.8224   21.4870 C   0  0  0  0  0  0  0  0  0  0  0  0
    8.4391    6.6439   21.0235 C   0  0  0  0  0  0  0  0  0  0  0  0
    9.6494   11.1353   20.4167 C   0  0  0  0  0  0  0  0  0  0  0  0
    8.1431    7.6829   21.9046 C   0  0  0  0  0  0  0  0  0  0  0  0
    7.7796   10.1314   21.5115 N   0  0  0  0  0  0  0  0  0  0  0  0
    9.2768    5.6183   21.4437 C   0  0  0  0  0  0  0  0  0  0  0  0
    8.6315    7.7322   23.1768 C   0  0  0  0  0  0  0  0  0  0  0  0
   13.0537    9.9821   20.5781 C   0  0  0  0  0  0  0  0  0  0  0  0
   10.3850    4.6575   23.2386 O   0  0  0  0  0  0  0  0  0  0  0  0
    4.2069    6.8450   20.7994 C   0  0  0  0  0  0  0  0  0  0  0  0
    3.0726   10.1043   19.8522 O   0  0  0  0  0  0  0  0  0  0  0  0
    5.5057    7.1196   21.1155 C   0  0  0  0  0  0  0  0  0  0  0  0
    7.0367   11.0229   21.9948 O   0  0  0  0  0  0  0  0  0  0  0  0
  1  8  4  0
  1 12  4  0
  2  9  1  0
  2 11  4  0
  2 25  4  0
  3 12  4  0
  3 14  1  0
  3 23  4  0
  4 13  4  0
  4 21  4  0
  4 24  1  0
  5  8  4  0
  5 23  4  0
  6 18  2  0
  7 15  4  0
  7 16  1  0
  7 27  4  0
  8 18  1  0
 10 18  1  0
 10 20  1  0
 11 15  4  0
 11 26  1  0
 13 22  4  0
 16 19  1  0
 16 20  2  0
 17 19  4  0
 17 21  4  0
 19 22  4  0
 20 28  1  0
 25 27  4  0
M  END
$$$$

 Created by Python create_sdf_string function

 28 30  0  0  0  0  0  0  0  0999 V2000
   11.4592   11.2893   18.7941 C   0  0  0  0  0  0  0  0  0  0  0  0
    3.4202    7.9009   20.3866 C   0  0  0  0  0  0  0  0  0  0  0  0
   13.5280   10.3522   19.3586 C   0  0  0  0  0  0  0  0  0  0  0  0
    9.6923    5.6468   22.7891 C   0  0  0  0  0  0  0  0  0  0  0  0
   11.7756   10.2554   20.8841 N   0  0  0  0  0  0  0  0  0  0  0  0
    8.9876   11.9370   19.8757 O   0  0  0  0  0  0  0  0  0  0  0  0
    6.0167    8.4478   21.1089 C   0  0  0  0  0  0  0  0  0  0  0  0
   11.0002   10.8890   20.0262 C   0  0  0  0  0  0  0  0  0  0  0  0
    2.1721    7.7393   20.0315 O   0  0  0  0  0  0  0  0  0  0  0  0
    9.1107   10.3880   21.3769 N   0  0  0  0  0  0  0  0  0  0  0  0
    3.9102    9.2008   20.3124 C   0  0  0  0  0  0  0  0  0  0  0  0
   12.7292   10.9960   18.4597 C   0  0  0  0  0  0  0  0  0  0  0  0
    9.3798    6.6793   23.6625 C   0  0  0  0  0  0  0  0  0  0  0  0
   14.7425   10.0739   19.0802 O   0  0  0  0  0  0  0  0  0  0  0  0
    5.1894    9.4673   20.7118 C   0  0  0  0  0  0  0  0  0  0  0  0
    7.3773    8.8224   21.4870 C   0  0  0  0  0  0  0  0  0  0  0  0
    8.4391    6.6439   21.0235 C   0  0  0  0  0  0  0  0  0  0  0  0
    9.6494   11.1353   20.4167 C   0  0  0  0  0  0  0  0  0  0  0  0
    8.1431    7.6829   21.9046 C   0  0  0  0  0  0  0  0  0  0  0  0
    7.7796   10.1314   21.5115 N   0  0  0  0  0  0  0  0  0  0  0  0
    9.2768    5.6183   21.4437 C   0  0  0  0  0  0  0  0  0  0  0  0
    8.6315    7.7322   23.1768 C   0  0  0  0  0  0  0  0  0  0  0  0
   13.0537    9.9821   20.5781 C   0  0  0  0  0  0  0  0  0  0  0  0
   10.3850    4.6575   23.2386 O   0  0  0  0  0  0  0  0  0  0  0  0
    4.2069    6.8450   20.7994 C   0  0  0  0  0  0  0  0  0  0  0  0
    3.0726   10.1043   19.8522 O   0  0  0  0  0  0  0  0  0  0  0  0
    5.5057    7.1196   21.1155 C   0  0  0  0  0  0  0  0  0  0  0  0
    7.0367   11.0229   21.9948 O   0  0  0  0  0  0  0  0  0  0  0  0
  1  8  4  0
  1 12  4  0
  2  9  1  0
  2 11  4  0
  2 25  4  0
  3 12  4  0
  3 14  1  0
  3 23  4  0
  4 13  4  0
  4 21  4  0
  4 24  1  0
  5  8  4  0
  5 23  4  0
  6 18  2  0
  7 15  4  0
  7 16  1  0
  7 27  4  0
  8 18  1  0
 10 18  1  0
 10 20  1  0
 11 15  4  0
 11 26  1  0
 13 22  4  0
 16 19  1  0
 16 20  2  0
 17 19  4  0
 17 21  4  0
 19 22  4  0
 20 28  1  0
 25 27  4  0
M  END
$$$$

 Created by Python create_sdf_string function

 28 30  0  0  0  0  0  0  0  0999 V2000
   11.4592   11.2893   18.7941 C   0  0  0  0  0  0  0  0  0  0  0  0
    3.4202    7.9009   20.3866 C   0  0  0  0  0  0  0  0  0  0  0  0
   13.5280   10.3522   19.3586 C   0  0  0  0  0  0  0  0  0  0  0  0
    9.6923    5.6468   22.7891 C   0  0  0  0  0  0  0  0  0  0  0  0
   11.7756   10.2554   20.8841 N   0  0  0  0  0  0  0  0  0  0  0  0
    8.9876   11.9370   19.8757 O   0  0  0  0  0  0  0  0  0  0  0  0
    6.0167    8.4478   21.1089 C   0  0  0  0  0  0  0  0  0  0  0  0
   11.0002   10.8890   20.0262 C   0  0  0  0  0  0  0  0  0  0  0  0
    2.1721    7.7393   20.0315 O   0  0  0  0  0  0  0  0  0  0  0  0
    9.1107   10.3880   21.3769 N   0  0  0  0  0  0  0  0  0  0  0  0
    3.9102    9.2008   20.3124 C   0  0  0  0  0  0  0  0  0  0  0  0
   12.7292   10.9960   18.4597 C   0  0  0  0  0  0  0  0  0  0  0  0
    9.3798    6.6793   23.6625 C   0  0  0  0  0  0  0  0  0  0  0  0
   14.7425   10.0739   19.0802 O   0  0  0  0  0  0  0  0  0  0  0  0
    5.1894    9.4673   20.7118 C   0  0  0  0  0  0  0  0  0  0  0  0
    7.3773    8.8224   21.4870 C   0  0  0  0  0  0  0  0  0  0  0  0
    8.4391    6.6439   21.0235 C   0  0  0  0  0  0  0  0  0  0  0  0
    9.6494   11.1353   20.4167 C   0  0  0  0  0  0  0  0  0  0  0  0
    8.1431    7.6829   21.9046 C   0  0  0  0  0  0  0  0  0  0  0  0
    7.7796   10.1314   21.5115 N   0  0  0  0  0  0  0  0  0  0  0  0
    9.2768    5.6183   21.4437 C   0  0  0  0  0  0  0  0  0  0  0  0
    8.6315    7.7322   23.1768 C   0  0  0  0  0  0  0  0  0  0  0  0
   13.0537    9.9821   20.5781 C   0  0  0  0  0  0  0  0  0  0  0  0
   10.3850    4.6575   23.2386 O   0  0  0  0  0  0  0  0  0  0  0  0
    4.2069    6.8450   20.7994 C   0  0  0  0  0  0  0  0  0  0  0  0
    3.0726   10.1043   19.8522 O   0  0  0  0  0  0  0  0  0  0  0  0
    5.5057    7.1196   21.1155 C   0  0  0  0  0  0  0  0  0  0  0  0
    7.0367   11.0229   21.9948 O   0  0  0  0  0  0  0  0  0  0  0  0
  1  8  4  0
  1 12  4  0
  2  9  1  0
  2 11  4  0
  2 25  4  0
  3 12  4  0
  3 14  1  0
  3 23  4  0
  4 13  4  0
  4 21  4  0
  4 24  1  0
  5  8  4  0
  5 23  4  0
  6 18  2  0
  7 15  4  0
  7 16  1  0
  7 27  4  0
  8 18  1  0
 10 18  1  0
 10 20  1  0
 11 15  4  0
 11 26  1  0
 13 22  4  0
 16 19  1  0
 16 20  2  0
 17 19  4  0
 17 21  4  0
 19 22  4  0
 20 28  1  0
 25 27  4  0
M  END
$$$$

 Created by Python create_sdf_string function

 28 30  0  0  0  0  0  0  0  0999 V2000
   11.4592   11.2893   18.7941 C   0  0  0  0  0  0  0  0  0  0  0  0
    3.4202    7.9009   20.3866 C   0  0  0  0  0  0  0  0  0  0  0  0
   13.5280   10.3522   19.3586 C   0  0  0  0  0  0  0  0  0  0  0  0
    9.6923    5.6468   22.7891 C   0  0  0  0  0  0  0  0  0  0  0  0
   11.7756   10.2554   20.8841 N   0  0  0  0  0  0  0  0  0  0  0  0
    8.9876   11.9370   19.8757 O   0  0  0  0  0  0  0  0  0  0  0  0
    6.0167    8.4478   21.1089 C   0  0  0  0  0  0  0  0  0  0  0  0
   11.0002   10.8890   20.0262 C   0  0  0  0  0  0  0  0  0  0  0  0
    2.1721    7.7393   20.0315 O   0  0  0  0  0  0  0  0  0  0  0  0
    9.1107   10.3880   21.3769 N   0  0  0  0  0  0  0  0  0  0  0  0
    3.9102    9.2008   20.3124 C   0  0  0  0  0  0  0  0  0  0  0  0
   12.7292   10.9960   18.4597 C   0  0  0  0  0  0  0  0  0  0  0  0
    9.3798    6.6793   23.6625 C   0  0  0  0  0  0  0  0  0  0  0  0
   14.7425   10.0739   19.0802 O   0  0  0  0  0  0  0  0  0  0  0  0
    5.1894    9.4673   20.7118 C   0  0  0  0  0  0  0  0  0  0  0  0
    7.3773    8.8224   21.4870 C   0  0  0  0  0  0  0  0  0  0  0  0
    8.4391    6.6439   21.0235 C   0  0  0  0  0  0  0  0  0  0  0  0
    9.6494   11.1353   20.4167 C   0  0  0  0  0  0  0  0  0  0  0  0
    8.1431    7.6829   21.9046 C   0  0  0  0  0  0  0  0  0  0  0  0
    7.7796   10.1314   21.5115 N   0  0  0  0  0  0  0  0  0  0  0  0
    9.2768    5.6183   21.4437 C   0  0  0  0  0  0  0  0  0  0  0  0
    8.6315    7.7322   23.1768 C   0  0  0  0  0  0  0  0  0  0  0  0
   13.0537    9.9821   20.5781 C   0  0  0  0  0  0  0  0  0  0  0  0
   10.3850    4.6575   23.2386 O   0  0  0  0  0  0  0  0  0  0  0  0
    4.2069    6.8450   20.7994 C   0  0  0  0  0  0  0  0  0  0  0  0
    3.0726   10.1043   19.8522 O   0  0  0  0  0  0  0  0  0  0  0  0
    5.5057    7.1196   21.1155 C   0  0  0  0  0  0  0  0  0  0  0  0
    7.0367   11.0229   21.9948 O   0  0  0  0  0  0  0  0  0  0  0  0
  1  8  4  0
  1 12  4  0
  2  9  1  0
  2 11  4  0
  2 25  4  0
  3 12  4  0
  3 14  1  0
  3 23  4  0
  4 13  4  0
  4 21  4  0
  4 24  1  0
  5  8  4  0
  5 23  4  0
  6 18  2  0
  7 15  4  0
  7 16  1  0
  7 27  4  0
  8 18  1  0
 10 18  1  0
 10 20  1  0
 11 15  4  0
 11 26  1  0
 13 22  4  0
 16 19  1  0
 16 20  2  0
 17 19  4  0
 17 21  4  0
 19 22  4  0
 20 28  1  0
 25 27  4  0
M  END
$$$$

 Created by Python create_sdf_string function

 28 30  0  0  0  0  0  0  0  0999 V2000
   11.4592   11.2893   18.7941 C   0  0  0  0  0  0  0  0  0  0  0  0
    3.4202    7.9009   20.3866 C   0  0  0  0  0  0  0  0  0  0  0  0
   13.5280   10.3522   19.3586 C   0  0  0  0  0  0  0  0  0  0  0  0
    9.6923    5.6468   22.7891 C   0  0  0  0  0  0  0  0  0  0  0  0
   11.7756   10.2554   20.8841 N   0  0  0  0  0  0  0  0  0  0  0  0
    8.9876   11.9370   19.8757 O   0  0  0  0  0  0  0  0  0  0  0  0
    6.0167    8.4478   21.1089 C   0  0  0  0  0  0  0  0  0  0  0  0
   11.0002   10.8890   20.0262 C   0  0  0  0  0  0  0  0  0  0  0  0
    2.1721    7.7393   20.0315 O   0  0  0  0  0  0  0  0  0  0  0  0
    9.1107   10.3880   21.3769 N   0  0  0  0  0  0  0  0  0  0  0  0
    3.9102    9.2008   20.3124 C   0  0  0  0  0  0  0  0  0  0  0  0
   12.7292   10.9960   18.4597 C   0  0  0  0  0  0  0  0  0  0  0  0
    9.3798    6.6793   23.6625 C   0  0  0  0  0  0  0  0  0  0  0  0
   14.7425   10.0739   19.0802 O   0  0  0  0  0  0  0  0  0  0  0  0
    5.1894    9.4673   20.7118 C   0  0  0  0  0  0  0  0  0  0  0  0
    7.3773    8.8224   21.4870 C   0  0  0  0  0  0  0  0  0  0  0  0
    8.4391    6.6439   21.0235 C   0  0  0  0  0  0  0  0  0  0  0  0
    9.6494   11.1353   20.4167 C   0  0  0  0  0  0  0  0  0  0  0  0
    8.1431    7.6829   21.9046 C   0  0  0  0  0  0  0  0  0  0  0  0
    7.7796   10.1314   21.5115 N   0  0  0  0  0  0  0  0  0  0  0  0
    9.2768    5.6183   21.4437 C   0  0  0  0  0  0  0  0  0  0  0  0
    8.6315    7.7322   23.1768 C   0  0  0  0  0  0  0  0  0  0  0  0
   13.0537    9.9821   20.5781 C   0  0  0  0  0  0  0  0  0  0  0  0
   10.3850    4.6575   23.2386 O   0  0  0  0  0  0  0  0  0  0  0  0
    4.2069    6.8450   20.7994 C   0  0  0  0  0  0  0  0  0  0  0  0
    3.0726   10.1043   19.8522 O   0  0  0  0  0  0  0  0  0  0  0  0
    5.5057    7.1196   21.1155 C   0  0  0  0  0  0  0  0  0  0  0  0
    7.0367   11.0229   21.9948 O   0  0  0  0  0  0  0  0  0  0  0  0
  1  8  4  0
  1 12  4  0
  2  9  1  0
  2 11  4  0
  2 25  4  0
  3 12  4  0
  3 14  1  0
  3 23  4  0
  4 13  4  0
  4 21  4  0
  4 24  1  0
  5  8  4  0
  5 23  4  0
  6 18  2  0
  7 15  4  0
  7 16  1  0
  7 27  4  0
  8 18  1  0
 10 18  1  0
 10 20  1  0
 11 15  4  0
 11 26  1  0
 13 22  4  0
 16 19  1  0
 16 20  2  0
 17 19  4  0
 17 21  4  0
 19 22  4  0
 20 28  1  0
 25 27  4  0
M  END
$$$$

 Created by Python create_sdf_string function

 28 30  0  0  0  0  0  0  0  0999 V2000
   11.4592   11.2893   18.7941 C   0  0  0  0  0  0  0  0  0  0  0  0
    3.4202    7.9009   20.3866 C   0  0  0  0  0  0  0  0  0  0  0  0
   13.5280   10.3522   19.3586 C   0  0  0  0  0  0  0  0  0  0  0  0
    9.6923    5.6468   22.7891 C   0  0  0  0  0  0  0  0  0  0  0  0
   11.7756   10.2554   20.8841 N   0  0  0  0  0  0  0  0  0  0  0  0
    8.9876   11.9370   19.8757 O   0  0  0  0  0  0  0  0  0  0  0  0
    6.0167    8.4478   21.1089 C   0  0  0  0  0  0  0  0  0  0  0  0
   11.0002   10.8890   20.0262 C   0  0  0  0  0  0  0  0  0  0  0  0
    2.1721    7.7393   20.0315 O   0  0  0  0  0  0  0  0  0  0  0  0
    9.1107   10.3880   21.3769 N   0  0  0  0  0  0  0  0  0  0  0  0
    3.9102    9.2008   20.3124 C   0  0  0  0  0  0  0  0  0  0  0  0
   12.7292   10.9960   18.4597 C   0  0  0  0  0  0  0  0  0  0  0  0
    9.3798    6.6793   23.6625 C   0  0  0  0  0  0  0  0  0  0  0  0
   14.7425   10.0739   19.0802 O   0  0  0  0  0  0  0  0  0  0  0  0
    5.1894    9.4673   20.7118 C   0  0  0  0  0  0  0  0  0  0  0  0
    7.3773    8.8224   21.4870 C   0  0  0  0  0  0  0  0  0  0  0  0
    8.4391    6.6439   21.0235 C   0  0  0  0  0  0  0  0  0  0  0  0
    9.6494   11.1353   20.4167 C   0  0  0  0  0  0  0  0  0  0  0  0
    8.1431    7.6829   21.9046 C   0  0  0  0  0  0  0  0  0  0  0  0
    7.7796   10.1314   21.5115 N   0  0  0  0  0  0  0  0  0  0  0  0
    9.2768    5.6183   21.4437 C   0  0  0  0  0  0  0  0  0  0  0  0
    8.6315    7.7322   23.1768 C   0  0  0  0  0  0  0  0  0  0  0  0
   13.0537    9.9821   20.5781 C   0  0  0  0  0  0  0  0  0  0  0  0
   10.3850    4.6575   23.2386 O   0  0  0  0  0  0  0  0  0  0  0  0
    4.2069    6.8450   20.7994 C   0  0  0  0  0  0  0  0  0  0  0  0
    3.0726   10.1043   19.8522 O   0  0  0  0  0  0  0  0  0  0  0  0
    5.5057    7.1196   21.1155 C   0  0  0  0  0  0  0  0  0  0  0  0
    7.0367   11.0229   21.9948 O   0  0  0  0  0  0  0  0  0  0  0  0
  1  8  4  0
  1 12  4  0
  2  9  1  0
  2 11  4  0
  2 25  4  0
  3 12  4  0
  3 14  1  0
  3 23  4  0
  4 13  4  0
  4 21  4  0
  4 24  1  0
  5  8  4  0
  5 23  4  0
  6 18  2  0
  7 15  4  0
  7 16  1  0
  7 27  4  0
  8 18  1  0
 10 18  1  0
 10 20  1  0
 11 15  4  0
 11 26  1  0
 13 22  4  0
 16 19  1  0
 16 20  2  0
 17 19  4  0
 17 21  4  0
 19 22  4  0
 20 28  1  0
 25 27  4  0
M  END
$$$$

 Created by Python create_sdf_string function

 28 30  0  0  0  0  0  0  0  0999 V2000
   11.4592   11.2893   18.7941 C   0  0  0  0  0  0  0  0  0  0  0  0
    3.4202    7.9009   20.3866 C   0  0  0  0  0  0  0  0  0  0  0  0
   13.5280   10.3522   19.3586 C   0  0  0  0  0  0  0  0  0  0  0  0
    9.6923    5.6468   22.7891 C   0  0  0  0  0  0  0  0  0  0  0  0
   11.7756   10.2554   20.8841 N   0  0  0  0  0  0  0  0  0  0  0  0
    8.9876   11.9370   19.8757 O   0  0  0  0  0  0  0  0  0  0  0  0
    6.0167    8.4478   21.1089 C   0  0  0  0  0  0  0  0  0  0  0  0
   11.0002   10.8890   20.0262 C   0  0  0  0  0  0  0  0  0  0  0  0
    2.1721    7.7393   20.0315 O   0  0  0  0  0  0  0  0  0  0  0  0
    9.1107   10.3880   21.3769 N   0  0  0  0  0  0  0  0  0  0  0  0
    3.9102    9.2008   20.3124 C   0  0  0  0  0  0  0  0  0  0  0  0
   12.7292   10.9960   18.4597 C   0  0  0  0  0  0  0  0  0  0  0  0
    9.3798    6.6793   23.6625 C   0  0  0  0  0  0  0  0  0  0  0  0
   14.7425   10.0739   19.0802 O   0  0  0  0  0  0  0  0  0  0  0  0
    5.1894    9.4673   20.7118 C   0  0  0  0  0  0  0  0  0  0  0  0
    7.3773    8.8224   21.4870 C   0  0  0  0  0  0  0  0  0  0  0  0
    8.4391    6.6439   21.0235 C   0  0  0  0  0  0  0  0  0  0  0  0
    9.6494   11.1353   20.4167 C   0  0  0  0  0  0  0  0  0  0  0  0
    8.1431    7.6829   21.9046 C   0  0  0  0  0  0  0  0  0  0  0  0
    7.7796   10.1314   21.5115 N   0  0  0  0  0  0  0  0  0  0  0  0
    9.2768    5.6183   21.4437 C   0  0  0  0  0  0  0  0  0  0  0  0
    8.6315    7.7322   23.1768 C   0  0  0  0  0  0  0  0  0  0  0  0
   13.0537    9.9821   20.5781 C   0  0  0  0  0  0  0  0  0  0  0  0
   10.3850    4.6575   23.2386 O   0  0  0  0  0  0  0  0  0  0  0  0
    4.2069    6.8450   20.7994 C   0  0  0  0  0  0  0  0  0  0  0  0
    3.0726   10.1043   19.8522 O   0  0  0  0  0  0  0  0  0  0  0  0
    5.5057    7.1196   21.1155 C   0  0  0  0  0  0  0  0  0  0  0  0
    7.0367   11.0229   21.9948 O   0  0  0  0  0  0  0  0  0  0  0  0
  1  8  4  0
  1 12  4  0
  2  9  1  0
  2 11  4  0
  2 25  4  0
  3 12  4  0
  3 14  1  0
  3 23  4  0
  4 13  4  0
  4 21  4  0
  4 24  1  0
  5  8  4  0
  5 23  4  0
  6 18  2  0
  7 15  4  0
  7 16  1  0
  7 27  4  0
  8 18  1  0
 10 18  1  0
 10 20  1  0
 11 15  4  0
 11 26  1  0
 13 22  4  0
 16 19  1  0
 16 20  2  0
 17 19  4  0
 17 21  4  0
 19 22  4  0
 20 28  1  0
 25 27  4  0
M  END
$$$$

 Created by Python create_sdf_string function

 28 30  0  0  0  0  0  0  0  0999 V2000
   11.4592   11.2893   18.7941 C   0  0  0  0  0  0  0  0  0  0  0  0
    3.4202    7.9009   20.3866 C   0  0  0  0  0  0  0  0  0  0  0  0
   13.5280   10.3522   19.3586 C   0  0  0  0  0  0  0  0  0  0  0  0
    9.6923    5.6468   22.7891 C   0  0  0  0  0  0  0  0  0  0  0  0
   11.7756   10.2554   20.8841 N   0  0  0  0  0  0  0  0  0  0  0  0
    8.9876   11.9370   19.8757 O   0  0  0  0  0  0  0  0  0  0  0  0
    6.0167    8.4478   21.1089 C   0  0  0  0  0  0  0  0  0  0  0  0
   11.0002   10.8890   20.0262 C   0  0  0  0  0  0  0  0  0  0  0  0
    2.1721    7.7393   20.0315 O   0  0  0  0  0  0  0  0  0  0  0  0
    9.1107   10.3880   21.3769 N   0  0  0  0  0  0  0  0  0  0  0  0
    3.9102    9.2008   20.3124 C   0  0  0  0  0  0  0  0  0  0  0  0
   12.7292   10.9960   18.4597 C   0  0  0  0  0  0  0  0  0  0  0  0
    9.3798    6.6793   23.6625 C   0  0  0  0  0  0  0  0  0  0  0  0
   14.7425   10.0739   19.0802 O   0  0  0  0  0  0  0  0  0  0  0  0
    5.1894    9.4673   20.7118 C   0  0  0  0  0  0  0  0  0  0  0  0
    7.3773    8.8224   21.4870 C   0  0  0  0  0  0  0  0  0  0  0  0
    8.4391    6.6439   21.0235 C   0  0  0  0  0  0  0  0  0  0  0  0
    9.6494   11.1353   20.4167 C   0  0  0  0  0  0  0  0  0  0  0  0
    8.1431    7.6829   21.9046 C   0  0  0  0  0  0  0  0  0  0  0  0
    7.7796   10.1314   21.5115 N   0  0  0  0  0  0  0  0  0  0  0  0
    9.2768    5.6183   21.4437 C   0  0  0  0  0  0  0  0  0  0  0  0
    8.6315    7.7322   23.1768 C   0  0  0  0  0  0  0  0  0  0  0  0
   13.0537    9.9821   20.5781 C   0  0  0  0  0  0  0  0  0  0  0  0
   10.3850    4.6575   23.2386 O   0  0  0  0  0  0  0  0  0  0  0  0
    4.2069    6.8450   20.7994 C   0  0  0  0  0  0  0  0  0  0  0  0
    3.0726   10.1043   19.8522 O   0  0  0  0  0  0  0  0  0  0  0  0
    5.5057    7.1196   21.1155 C   0  0  0  0  0  0  0  0  0  0  0  0
    7.0367   11.0229   21.9948 O   0  0  0  0  0  0  0  0  0  0  0  0
  1  8  4  0
  1 12  4  0
  2  9  1  0
  2 11  4  0
  2 25  4  0
  3 12  4  0
  3 14  1  0
  3 23  4  0
  4 13  4  0
  4 21  4  0
  4 24  1  0
  5  8  4  0
  5 23  4  0
  6 18  2  0
  7 15  4  0
  7 16  1  0
  7 27  4  0
  8 18  1  0
 10 18  1  0
 10 20  1  0
 11 15  4  0
 11 26  1  0
 13 22  4  0
 16 19  1  0
 16 20  2  0
 17 19  4  0
 17 21  4  0
 19 22  4  0
 20 28  1  0
 25 27  4  0
M  END
$$$$

 Created by Python create_sdf_string function

 28 30  0  0  0  0  0  0  0  0999 V2000
   11.4592   11.2893   18.7941 C   0  0  0  0  0  0  0  0  0  0  0  0
    3.4202    7.9009   20.3866 C   0  0  0  0  0  0  0  0  0  0  0  0
   13.5280   10.3522   19.3586 C   0  0  0  0  0  0  0  0  0  0  0  0
    9.6923    5.6468   22.7891 C   0  0  0  0  0  0  0  0  0  0  0  0
   11.7756   10.2554   20.8841 N   0  0  0  0  0  0  0  0  0  0  0  0
    8.9876   11.9370   19.8757 O   0  0  0  0  0  0  0  0  0  0  0  0
    6.0167    8.4478   21.1089 C   0  0  0  0  0  0  0  0  0  0  0  0
   11.0002   10.8890   20.0262 C   0  0  0  0  0  0  0  0  0  0  0  0
    2.1721    7.7393   20.0315 O   0  0  0  0  0  0  0  0  0  0  0  0
    9.1107   10.3880   21.3769 N   0  0  0  0  0  0  0  0  0  0  0  0
    3.9102    9.2008   20.3124 C   0  0  0  0  0  0  0  0  0  0  0  0
   12.7292   10.9960   18.4597 C   0  0  0  0  0  0  0  0  0  0  0  0
    9.3798    6.6793   23.6625 C   0  0  0  0  0  0  0  0  0  0  0  0
   14.7425   10.0739   19.0802 O   0  0  0  0  0  0  0  0  0  0  0  0
    5.1894    9.4673   20.7118 C   0  0  0  0  0  0  0  0  0  0  0  0
    7.3773    8.8224   21.4870 C   0  0  0  0  0  0  0  0  0  0  0  0
    8.4391    6.6439   21.0235 C   0  0  0  0  0  0  0  0  0  0  0  0
    9.6494   11.1353   20.4167 C   0  0  0  0  0  0  0  0  0  0  0  0
    8.1431    7.6829   21.9046 C   0  0  0  0  0  0  0  0  0  0  0  0
    7.7796   10.1314   21.5115 N   0  0  0  0  0  0  0  0  0  0  0  0
    9.2768    5.6183   21.4437 C   0  0  0  0  0  0  0  0  0  0  0  0
    8.6315    7.7322   23.1768 C   0  0  0  0  0  0  0  0  0  0  0  0
   13.0537    9.9821   20.5781 C   0  0  0  0  0  0  0  0  0  0  0  0
   10.3850    4.6575   23.2386 O   0  0  0  0  0  0  0  0  0  0  0  0
    4.2069    6.8450   20.7994 C   0  0  0  0  0  0  0  0  0  0  0  0
    3.0726   10.1043   19.8522 O   0  0  0  0  0  0  0  0  0  0  0  0
    5.5057    7.1196   21.1155 C   0  0  0  0  0  0  0  0  0  0  0  0
    7.0367   11.0229   21.9948 O   0  0  0  0  0  0  0  0  0  0  0  0
  1  8  4  0
  1 12  4  0
  2  9  1  0
  2 11  4  0
  2 25  4  0
  3 12  4  0
  3 14  1  0
  3 23  4  0
  4 13  4  0
  4 21  4  0
  4 24  1  0
  5  8  4  0
  5 23  4  0
  6 18  2  0
  7 15  4  0
  7 16  1  0
  7 27  4  0
  8 18  1  0
 10 18  1  0
 10 20  1  0
 11 15  4  0
 11 26  1  0
 13 22  4  0
 16 19  1  0
 16 20  2  0
 17 19  4  0
 17 21  4  0
 19 22  4  0
 20 28  1  0
 25 27  4  0
M  END
$$$$

 Created by Python create_sdf_string function

 28 30  0  0  0  0  0  0  0  0999 V2000
   11.4592   11.2893   18.7941 C   0  0  0  0  0  0  0  0  0  0  0  0
    3.4202    7.9009   20.3866 C   0  0  0  0  0  0  0  0  0  0  0  0
   13.5280   10.3522   19.3586 C   0  0  0  0  0  0  0  0  0  0  0  0
    9.6923    5.6468   22.7891 C   0  0  0  0  0  0  0  0  0  0  0  0
   11.7756   10.2554   20.8841 N   0  0  0  0  0  0  0  0  0  0  0  0
    8.9876   11.9370   19.8757 O   0  0  0  0  0  0  0  0  0  0  0  0
    6.0167    8.4478   21.1089 C   0  0  0  0  0  0  0  0  0  0  0  0
   11.0002   10.8890   20.0262 C   0  0  0  0  0  0  0  0  0  0  0  0
    2.1721    7.7393   20.0315 O   0  0  0  0  0  0  0  0  0  0  0  0
    9.1107   10.3880   21.3769 N   0  0  0  0  0  0  0  0  0  0  0  0
    3.9102    9.2008   20.3124 C   0  0  0  0  0  0  0  0  0  0  0  0
   12.7292   10.9960   18.4597 C   0  0  0  0  0  0  0  0  0  0  0  0
    9.3798    6.6793   23.6625 C   0  0  0  0  0  0  0  0  0  0  0  0
   14.7425   10.0739   19.0802 O   0  0  0  0  0  0  0  0  0  0  0  0
    5.1894    9.4673   20.7118 C   0  0  0  0  0  0  0  0  0  0  0  0
    7.3773    8.8224   21.4870 C   0  0  0  0  0  0  0  0  0  0  0  0
    8.4391    6.6439   21.0235 C   0  0  0  0  0  0  0  0  0  0  0  0
    9.6494   11.1353   20.4167 C   0  0  0  0  0  0  0  0  0  0  0  0
    8.1431    7.6829   21.9046 C   0  0  0  0  0  0  0  0  0  0  0  0
    7.7796   10.1314   21.5115 N   0  0  0  0  0  0  0  0  0  0  0  0
    9.2768    5.6183   21.4437 C   0  0  0  0  0  0  0  0  0  0  0  0
    8.6315    7.7322   23.1768 C   0  0  0  0  0  0  0  0  0  0  0  0
   13.0537    9.9821   20.5781 C   0  0  0  0  0  0  0  0  0  0  0  0
   10.3850    4.6575   23.2386 O   0  0  0  0  0  0  0  0  0  0  0  0
    4.2069    6.8450   20.7994 C   0  0  0  0  0  0  0  0  0  0  0  0
    3.0726   10.1043   19.8522 O   0  0  0  0  0  0  0  0  0  0  0  0
    5.5057    7.1196   21.1155 C   0  0  0  0  0  0  0  0  0  0  0  0
    7.0367   11.0229   21.9948 O   0  0  0  0  0  0  0  0  0  0  0  0
  1  8  4  0
  1 12  4  0
  2  9  1  0
  2 11  4  0
  2 25  4  0
  3 12  4  0
  3 14  1  0
  3 23  4  0
  4 13  4  0
  4 21  4  0
  4 24  1  0
  5  8  4  0
  5 23  4  0
  6 18  2  0
  7 15  4  0
  7 16  1  0
  7 27  4  0
  8 18  1  0
 10 18  1  0
 10 20  1  0
 11 15  4  0
 11 26  1  0
 13 22  4  0
 16 19  1  0
 16 20  2  0
 17 19  4  0
 17 21  4  0
 19 22  4  0
 20 28  1  0
 25 27  4  0
M  END
$$$$

 Created by Python create_sdf_string function

 28 30  0  0  0  0  0  0  0  0999 V2000
   11.4592   11.2893   18.7941 C   0  0  0  0  0  0  0  0  0  0  0  0
    3.4202    7.9009   20.3866 C   0  0  0  0  0  0  0  0  0  0  0  0
   13.5280   10.3522   19.3586 C   0  0  0  0  0  0  0  0  0  0  0  0
    9.6923    5.6468   22.7891 C   0  0  0  0  0  0  0  0  0  0  0  0
   11.7756   10.2554   20.8841 N   0  0  0  0  0  0  0  0  0  0  0  0
    8.9876   11.9370   19.8757 O   0  0  0  0  0  0  0  0  0  0  0  0
    6.0167    8.4478   21.1089 C   0  0  0  0  0  0  0  0  0  0  0  0
   11.0002   10.8890   20.0262 C   0  0  0  0  0  0  0  0  0  0  0  0
    2.1721    7.7393   20.0315 O   0  0  0  0  0  0  0  0  0  0  0  0
    9.1107   10.3880   21.3769 N   0  0  0  0  0  0  0  0  0  0  0  0
    3.9102    9.2008   20.3124 C   0  0  0  0  0  0  0  0  0  0  0  0
   12.7292   10.9960   18.4597 C   0  0  0  0  0  0  0  0  0  0  0  0
    9.3798    6.6793   23.6625 C   0  0  0  0  0  0  0  0  0  0  0  0
   14.7425   10.0739   19.0802 O   0  0  0  0  0  0  0  0  0  0  0  0
    5.1894    9.4673   20.7118 C   0  0  0  0  0  0  0  0  0  0  0  0
    7.3773    8.8224   21.4870 C   0  0  0  0  0  0  0  0  0  0  0  0
    8.4391    6.6439   21.0235 C   0  0  0  0  0  0  0  0  0  0  0  0
    9.6494   11.1353   20.4167 C   0  0  0  0  0  0  0  0  0  0  0  0
    8.1431    7.6829   21.9046 C   0  0  0  0  0  0  0  0  0  0  0  0
    7.7796   10.1314   21.5115 N   0  0  0  0  0  0  0  0  0  0  0  0
    9.2768    5.6183   21.4437 C   0  0  0  0  0  0  0  0  0  0  0  0
    8.6315    7.7322   23.1768 C   0  0  0  0  0  0  0  0  0  0  0  0
   13.0537    9.9821   20.5781 C   0  0  0  0  0  0  0  0  0  0  0  0
   10.3850    4.6575   23.2386 O   0  0  0  0  0  0  0  0  0  0  0  0
    4.2069    6.8450   20.7994 C   0  0  0  0  0  0  0  0  0  0  0  0
    3.0726   10.1043   19.8522 O   0  0  0  0  0  0  0  0  0  0  0  0
    5.5057    7.1196   21.1155 C   0  0  0  0  0  0  0  0  0  0  0  0
    7.0367   11.0229   21.9948 O   0  0  0  0  0  0  0  0  0  0  0  0
  1  8  4  0
  1 12  4  0
  2  9  1  0
  2 11  4  0
  2 25  4  0
  3 12  4  0
  3 14  1  0
  3 23  4  0
  4 13  4  0
  4 21  4  0
  4 24  1  0
  5  8  4  0
  5 23  4  0
  6 18  2  0
  7 15  4  0
  7 16  1  0
  7 27  4  0
  8 18  1  0
 10 18  1  0
 10 20  1  0
 11 15  4  0
 11 26  1  0
 13 22  4  0
 16 19  1  0
 16 20  2  0
 17 19  4  0
 17 21  4  0
 19 22  4  0
 20 28  1  0
 25 27  4  0
M  END
$$$$

 Created by Python create_sdf_string function

 28 30  0  0  0  0  0  0  0  0999 V2000
   11.4592   11.2893   18.7941 C   0  0  0  0  0  0  0  0  0  0  0  0
    3.4202    7.9009   20.3866 C   0  0  0  0  0  0  0  0  0  0  0  0
   13.5280   10.3522   19.3586 C   0  0  0  0  0  0  0  0  0  0  0  0
    9.6923    5.6468   22.7891 C   0  0  0  0  0  0  0  0  0  0  0  0
   11.7756   10.2554   20.8841 N   0  0  0  0  0  0  0  0  0  0  0  0
    8.9876   11.9370   19.8757 O   0  0  0  0  0  0  0  0  0  0  0  0
    6.0167    8.4478   21.1089 C   0  0  0  0  0  0  0  0  0  0  0  0
   11.0002   10.8890   20.0262 C   0  0  0  0  0  0  0  0  0  0  0  0
    2.1721    7.7393   20.0315 O   0  0  0  0  0  0  0  0  0  0  0  0
    9.1107   10.3880   21.3769 N   0  0  0  0  0  0  0  0  0  0  0  0
    3.9102    9.2008   20.3124 C   0  0  0  0  0  0  0  0  0  0  0  0
   12.7292   10.9960   18.4597 C   0  0  0  0  0  0  0  0  0  0  0  0
    9.3798    6.6793   23.6625 C   0  0  0  0  0  0  0  0  0  0  0  0
   14.7425   10.0739   19.0802 O   0  0  0  0  0  0  0  0  0  0  0  0
    5.1894    9.4673   20.7118 C   0  0  0  0  0  0  0  0  0  0  0  0
    7.3773    8.8224   21.4870 C   0  0  0  0  0  0  0  0  0  0  0  0
    8.4391    6.6439   21.0235 C   0  0  0  0  0  0  0  0  0  0  0  0
    9.6494   11.1353   20.4167 C   0  0  0  0  0  0  0  0  0  0  0  0
    8.1431    7.6829   21.9046 C   0  0  0  0  0  0  0  0  0  0  0  0
    7.7796   10.1314   21.5115 N   0  0  0  0  0  0  0  0  0  0  0  0
    9.2768    5.6183   21.4437 C   0  0  0  0  0  0  0  0  0  0  0  0
    8.6315    7.7322   23.1768 C   0  0  0  0  0  0  0  0  0  0  0  0
   13.0537    9.9821   20.5781 C   0  0  0  0  0  0  0  0  0  0  0  0
   10.3850    4.6575   23.2386 O   0  0  0  0  0  0  0  0  0  0  0  0
    4.2069    6.8450   20.7994 C   0  0  0  0  0  0  0  0  0  0  0  0
    3.0726   10.1043   19.8522 O   0  0  0  0  0  0  0  0  0  0  0  0
    5.5057    7.1196   21.1155 C   0  0  0  0  0  0  0  0  0  0  0  0
    7.0367   11.0229   21.9948 O   0  0  0  0  0  0  0  0  0  0  0  0
  1  8  4  0
  1 12  4  0
  2  9  1  0
  2 11  4  0
  2 25  4  0
  3 12  4  0
  3 14  1  0
  3 23  4  0
  4 13  4  0
  4 21  4  0
  4 24  1  0
  5  8  4  0
  5 23  4  0
  6 18  2  0
  7 15  4  0
  7 16  1  0
  7 27  4  0
  8 18  1  0
 10 18  1  0
 10 20  1  0
 11 15  4  0
 11 26  1  0
 13 22  4  0
 16 19  1  0
 16 20  2  0
 17 19  4  0
 17 21  4  0
 19 22  4  0
 20 28  1  0
 25 27  4  0
M  END
$$$$

 Created by Python create_sdf_string function

 28 30  0  0  0  0  0  0  0  0999 V2000
   11.4592   11.2893   18.7941 C   0  0  0  0  0  0  0  0  0  0  0  0
    3.4202    7.9009   20.3866 C   0  0  0  0  0  0  0  0  0  0  0  0
   13.5280   10.3522   19.3586 C   0  0  0  0  0  0  0  0  0  0  0  0
    9.6923    5.6468   22.7891 C   0  0  0  0  0  0  0  0  0  0  0  0
   11.7756   10.2554   20.8841 N   0  0  0  0  0  0  0  0  0  0  0  0
    8.9876   11.9370   19.8757 O   0  0  0  0  0  0  0  0  0  0  0  0
    6.0167    8.4478   21.1089 C   0  0  0  0  0  0  0  0  0  0  0  0
   11.0002   10.8890   20.0262 C   0  0  0  0  0  0  0  0  0  0  0  0
    2.1721    7.7393   20.0315 O   0  0  0  0  0  0  0  0  0  0  0  0
    9.1107   10.3880   21.3769 N   0  0  0  0  0  0  0  0  0  0  0  0
    3.9102    9.2008   20.3124 C   0  0  0  0  0  0  0  0  0  0  0  0
   12.7292   10.9960   18.4597 C   0  0  0  0  0  0  0  0  0  0  0  0
    9.3798    6.6793   23.6625 C   0  0  0  0  0  0  0  0  0  0  0  0
   14.7425   10.0739   19.0802 O   0  0  0  0  0  0  0  0  0  0  0  0
    5.1894    9.4673   20.7118 C   0  0  0  0  0  0  0  0  0  0  0  0
    7.3773    8.8224   21.4870 C   0  0  0  0  0  0  0  0  0  0  0  0
    8.4391    6.6439   21.0235 C   0  0  0  0  0  0  0  0  0  0  0  0
    9.6494   11.1353   20.4167 C   0  0  0  0  0  0  0  0  0  0  0  0
    8.1431    7.6829   21.9046 C   0  0  0  0  0  0  0  0  0  0  0  0
    7.7796   10.1314   21.5115 N   0  0  0  0  0  0  0  0  0  0  0  0
    9.2768    5.6183   21.4437 C   0  0  0  0  0  0  0  0  0  0  0  0
    8.6315    7.7322   23.1768 C   0  0  0  0  0  0  0  0  0  0  0  0
   13.0537    9.9821   20.5781 C   0  0  0  0  0  0  0  0  0  0  0  0
   10.3850    4.6575   23.2386 O   0  0  0  0  0  0  0  0  0  0  0  0
    4.2069    6.8450   20.7994 C   0  0  0  0  0  0  0  0  0  0  0  0
    3.0726   10.1043   19.8522 O   0  0  0  0  0  0  0  0  0  0  0  0
    5.5057    7.1196   21.1155 C   0  0  0  0  0  0  0  0  0  0  0  0
    7.0367   11.0229   21.9948 O   0  0  0  0  0  0  0  0  0  0  0  0
  1  8  4  0
  1 12  4  0
  2  9  1  0
  2 11  4  0
  2 25  4  0
  3 12  4  0
  3 14  1  0
  3 23  4  0
  4 13  4  0
  4 21  4  0
  4 24  1  0
  5  8  4  0
  5 23  4  0
  6 18  2  0
  7 15  4  0
  7 16  1  0
  7 27  4  0
  8 18  1  0
 10 18  1  0
 10 20  1  0
 11 15  4  0
 11 26  1  0
 13 22  4  0
 16 19  1  0
 16 20  2  0
 17 19  4  0
 17 21  4  0
 19 22  4  0
 20 28  1  0
 25 27  4  0
M  END
$$$$

 Created by Python create_sdf_string function

 28 30  0  0  0  0  0  0  0  0999 V2000
   11.4592   11.2893   18.7941 C   0  0  0  0  0  0  0  0  0  0  0  0
    3.4202    7.9009   20.3866 C   0  0  0  0  0  0  0  0  0  0  0  0
   13.5280   10.3522   19.3586 C   0  0  0  0  0  0  0  0  0  0  0  0
    9.6923    5.6468   22.7891 C   0  0  0  0  0  0  0  0  0  0  0  0
   11.7756   10.2554   20.8841 N   0  0  0  0  0  0  0  0  0  0  0  0
    8.9876   11.9370   19.8757 O   0  0  0  0  0  0  0  0  0  0  0  0
    6.0167    8.4478   21.1089 C   0  0  0  0  0  0  0  0  0  0  0  0
   11.0002   10.8890   20.0262 C   0  0  0  0  0  0  0  0  0  0  0  0
    2.1721    7.7393   20.0315 O   0  0  0  0  0  0  0  0  0  0  0  0
    9.1107   10.3880   21.3769 N   0  0  0  0  0  0  0  0  0  0  0  0
    3.9102    9.2008   20.3124 C   0  0  0  0  0  0  0  0  0  0  0  0
   12.7292   10.9960   18.4597 C   0  0  0  0  0  0  0  0  0  0  0  0
    9.3798    6.6793   23.6625 C   0  0  0  0  0  0  0  0  0  0  0  0
   14.7425   10.0739   19.0802 O   0  0  0  0  0  0  0  0  0  0  0  0
    5.1894    9.4673   20.7118 C   0  0  0  0  0  0  0  0  0  0  0  0
    7.3773    8.8224   21.4870 C   0  0  0  0  0  0  0  0  0  0  0  0
    8.4391    6.6439   21.0235 C   0  0  0  0  0  0  0  0  0  0  0  0
    9.6494   11.1353   20.4167 C   0  0  0  0  0  0  0  0  0  0  0  0
    8.1431    7.6829   21.9046 C   0  0  0  0  0  0  0  0  0  0  0  0
    7.7796   10.1314   21.5115 N   0  0  0  0  0  0  0  0  0  0  0  0
    9.2768    5.6183   21.4437 C   0  0  0  0  0  0  0  0  0  0  0  0
    8.6315    7.7322   23.1768 C   0  0  0  0  0  0  0  0  0  0  0  0
   13.0537    9.9821   20.5781 C   0  0  0  0  0  0  0  0  0  0  0  0
   10.3850    4.6575   23.2386 O   0  0  0  0  0  0  0  0  0  0  0  0
    4.2069    6.8450   20.7994 C   0  0  0  0  0  0  0  0  0  0  0  0
    3.0726   10.1043   19.8522 O   0  0  0  0  0  0  0  0  0  0  0  0
    5.5057    7.1196   21.1155 C   0  0  0  0  0  0  0  0  0  0  0  0
    7.0367   11.0229   21.9948 O   0  0  0  0  0  0  0  0  0  0  0  0
  1  8  4  0
  1 12  4  0
  2  9  1  0
  2 11  4  0
  2 25  4  0
  3 12  4  0
  3 14  1  0
  3 23  4  0
  4 13  4  0
  4 21  4  0
  4 24  1  0
  5  8  4  0
  5 23  4  0
  6 18  2  0
  7 15  4  0
  7 16  1  0
  7 27  4  0
  8 18  1  0
 10 18  1  0
 10 20  1  0
 11 15  4  0
 11 26  1  0
 13 22  4  0
 16 19  1  0
 16 20  2  0
 17 19  4  0
 17 21  4  0
 19 22  4  0
 20 28  1  0
 25 27  4  0
M  END
$$$$

 Created by Python create_sdf_string function

 28 30  0  0  0  0  0  0  0  0999 V2000
   11.4592   11.2893   18.7941 C   0  0  0  0  0  0  0  0  0  0  0  0
    3.4202    7.9009   20.3866 C   0  0  0  0  0  0  0  0  0  0  0  0
   13.5280   10.3522   19.3586 C   0  0  0  0  0  0  0  0  0  0  0  0
    9.6923    5.6468   22.7891 C   0  0  0  0  0  0  0  0  0  0  0  0
   11.7756   10.2554   20.8841 N   0  0  0  0  0  0  0  0  0  0  0  0
    8.9876   11.9370   19.8757 O   0  0  0  0  0  0  0  0  0  0  0  0
    6.0167    8.4478   21.1089 C   0  0  0  0  0  0  0  0  0  0  0  0
   11.0002   10.8890   20.0262 C   0  0  0  0  0  0  0  0  0  0  0  0
    2.1721    7.7393   20.0315 O   0  0  0  0  0  0  0  0  0  0  0  0
    9.1107   10.3880   21.3769 N   0  0  0  0  0  0  0  0  0  0  0  0
    3.9102    9.2008   20.3124 C   0  0  0  0  0  0  0  0  0  0  0  0
   12.7292   10.9960   18.4597 C   0  0  0  0  0  0  0  0  0  0  0  0
    9.3798    6.6793   23.6625 C   0  0  0  0  0  0  0  0  0  0  0  0
   14.7425   10.0739   19.0802 O   0  0  0  0  0  0  0  0  0  0  0  0
    5.1894    9.4673   20.7118 C   0  0  0  0  0  0  0  0  0  0  0  0
    7.3773    8.8224   21.4870 C   0  0  0  0  0  0  0  0  0  0  0  0
    8.4391    6.6439   21.0235 C   0  0  0  0  0  0  0  0  0  0  0  0
    9.6494   11.1353   20.4167 C   0  0  0  0  0  0  0  0  0  0  0  0
    8.1431    7.6829   21.9046 C   0  0  0  0  0  0  0  0  0  0  0  0
    7.7796   10.1314   21.5115 N   0  0  0  0  0  0  0  0  0  0  0  0
    9.2768    5.6183   21.4437 C   0  0  0  0  0  0  0  0  0  0  0  0
    8.6315    7.7322   23.1768 C   0  0  0  0  0  0  0  0  0  0  0  0
   13.0537    9.9821   20.5781 C   0  0  0  0  0  0  0  0  0  0  0  0
   10.3850    4.6575   23.2386 O   0  0  0  0  0  0  0  0  0  0  0  0
    4.2069    6.8450   20.7994 C   0  0  0  0  0  0  0  0  0  0  0  0
    3.0726   10.1043   19.8522 O   0  0  0  0  0  0  0  0  0  0  0  0
    5.5057    7.1196   21.1155 C   0  0  0  0  0  0  0  0  0  0  0  0
    7.0367   11.0229   21.9948 O   0  0  0  0  0  0  0  0  0  0  0  0
  1  8  4  0
  1 12  4  0
  2  9  1  0
  2 11  4  0
  2 25  4  0
  3 12  4  0
  3 14  1  0
  3 23  4  0
  4 13  4  0
  4 21  4  0
  4 24  1  0
  5  8  4  0
  5 23  4  0
  6 18  2  0
  7 15  4  0
  7 16  1  0
  7 27  4  0
  8 18  1  0
 10 18  1  0
 10 20  1  0
 11 15  4  0
 11 26  1  0
 13 22  4  0
 16 19  1  0
 16 20  2  0
 17 19  4  0
 17 21  4  0
 19 22  4  0
 20 28  1  0
 25 27  4  0
M  END
$$$$

 Created by Python create_sdf_string function

 28 30  0  0  0  0  0  0  0  0999 V2000
   11.4592   11.2893   18.7941 C   0  0  0  0  0  0  0  0  0  0  0  0
    3.4202    7.9009   20.3866 C   0  0  0  0  0  0  0  0  0  0  0  0
   13.5280   10.3522   19.3586 C   0  0  0  0  0  0  0  0  0  0  0  0
    9.6923    5.6468   22.7891 C   0  0  0  0  0  0  0  0  0  0  0  0
   11.7756   10.2554   20.8841 N   0  0  0  0  0  0  0  0  0  0  0  0
    8.9876   11.9370   19.8757 O   0  0  0  0  0  0  0  0  0  0  0  0
    6.0167    8.4478   21.1089 C   0  0  0  0  0  0  0  0  0  0  0  0
   11.0002   10.8890   20.0262 C   0  0  0  0  0  0  0  0  0  0  0  0
    2.1721    7.7393   20.0315 O   0  0  0  0  0  0  0  0  0  0  0  0
    9.1107   10.3880   21.3769 N   0  0  0  0  0  0  0  0  0  0  0  0
    3.9102    9.2008   20.3124 C   0  0  0  0  0  0  0  0  0  0  0  0
   12.7292   10.9960   18.4597 C   0  0  0  0  0  0  0  0  0  0  0  0
    9.3798    6.6793   23.6625 C   0  0  0  0  0  0  0  0  0  0  0  0
   14.7425   10.0739   19.0802 O   0  0  0  0  0  0  0  0  0  0  0  0
    5.1894    9.4673   20.7118 C   0  0  0  0  0  0  0  0  0  0  0  0
    7.3773    8.8224   21.4870 C   0  0  0  0  0  0  0  0  0  0  0  0
    8.4391    6.6439   21.0235 C   0  0  0  0  0  0  0  0  0  0  0  0
    9.6494   11.1353   20.4167 C   0  0  0  0  0  0  0  0  0  0  0  0
    8.1431    7.6829   21.9046 C   0  0  0  0  0  0  0  0  0  0  0  0
    7.7796   10.1314   21.5115 N   0  0  0  0  0  0  0  0  0  0  0  0
    9.2768    5.6183   21.4437 C   0  0  0  0  0  0  0  0  0  0  0  0
    8.6315    7.7322   23.1768 C   0  0  0  0  0  0  0  0  0  0  0  0
   13.0537    9.9821   20.5781 C   0  0  0  0  0  0  0  0  0  0  0  0
   10.3850    4.6575   23.2386 O   0  0  0  0  0  0  0  0  0  0  0  0
    4.2069    6.8450   20.7994 C   0  0  0  0  0  0  0  0  0  0  0  0
    3.0726   10.1043   19.8522 O   0  0  0  0  0  0  0  0  0  0  0  0
    5.5057    7.1196   21.1155 C   0  0  0  0  0  0  0  0  0  0  0  0
    7.0367   11.0229   21.9948 O   0  0  0  0  0  0  0  0  0  0  0  0
  1  8  4  0
  1 12  4  0
  2  9  1  0
  2 11  4  0
  2 25  4  0
  3 12  4  0
  3 14  1  0
  3 23  4  0
  4 13  4  0
  4 21  4  0
  4 24  1  0
  5  8  4  0
  5 23  4  0
  6 18  2  0
  7 15  4  0
  7 16  1  0
  7 27  4  0
  8 18  1  0
 10 18  1  0
 10 20  1  0
 11 15  4  0
 11 26  1  0
 13 22  4  0
 16 19  1  0
 16 20  2  0
 17 19  4  0
 17 21  4  0
 19 22  4  0
 20 28  1  0
 25 27  4  0
M  END
$$$$

 Created by Python create_sdf_string function

 28 30  0  0  0  0  0  0  0  0999 V2000
   11.4592   11.2893   18.7941 C   0  0  0  0  0  0  0  0  0  0  0  0
    3.4202    7.9009   20.3866 C   0  0  0  0  0  0  0  0  0  0  0  0
   13.5280   10.3522   19.3586 C   0  0  0  0  0  0  0  0  0  0  0  0
    9.6923    5.6468   22.7891 C   0  0  0  0  0  0  0  0  0  0  0  0
   11.7756   10.2554   20.8841 N   0  0  0  0  0  0  0  0  0  0  0  0
    8.9876   11.9370   19.8757 O   0  0  0  0  0  0  0  0  0  0  0  0
    6.0167    8.4478   21.1089 C   0  0  0  0  0  0  0  0  0  0  0  0
   11.0002   10.8890   20.0262 C   0  0  0  0  0  0  0  0  0  0  0  0
    2.1721    7.7393   20.0315 O   0  0  0  0  0  0  0  0  0  0  0  0
    9.1107   10.3880   21.3769 N   0  0  0  0  0  0  0  0  0  0  0  0
    3.9102    9.2008   20.3124 C   0  0  0  0  0  0  0  0  0  0  0  0
   12.7292   10.9960   18.4597 C   0  0  0  0  0  0  0  0  0  0  0  0
    9.3798    6.6793   23.6625 C   0  0  0  0  0  0  0  0  0  0  0  0
   14.7425   10.0739   19.0802 O   0  0  0  0  0  0  0  0  0  0  0  0
    5.1894    9.4673   20.7118 C   0  0  0  0  0  0  0  0  0  0  0  0
    7.3773    8.8224   21.4870 C   0  0  0  0  0  0  0  0  0  0  0  0
    8.4391    6.6439   21.0235 C   0  0  0  0  0  0  0  0  0  0  0  0
    9.6494   11.1353   20.4167 C   0  0  0  0  0  0  0  0  0  0  0  0
    8.1431    7.6829   21.9046 C   0  0  0  0  0  0  0  0  0  0  0  0
    7.7796   10.1314   21.5115 N   0  0  0  0  0  0  0  0  0  0  0  0
    9.2768    5.6183   21.4437 C   0  0  0  0  0  0  0  0  0  0  0  0
    8.6315    7.7322   23.1768 C   0  0  0  0  0  0  0  0  0  0  0  0
   13.0537    9.9821   20.5781 C   0  0  0  0  0  0  0  0  0  0  0  0
   10.3850    4.6575   23.2386 O   0  0  0  0  0  0  0  0  0  0  0  0
    4.2069    6.8450   20.7994 C   0  0  0  0  0  0  0  0  0  0  0  0
    3.0726   10.1043   19.8522 O   0  0  0  0  0  0  0  0  0  0  0  0
    5.5057    7.1196   21.1155 C   0  0  0  0  0  0  0  0  0  0  0  0
    7.0367   11.0229   21.9948 O   0  0  0  0  0  0  0  0  0  0  0  0
  1  8  4  0
  1 12  4  0
  2  9  1  0
  2 11  4  0
  2 25  4  0
  3 12  4  0
  3 14  1  0
  3 23  4  0
  4 13  4  0
  4 21  4  0
  4 24  1  0
  5  8  4  0
  5 23  4  0
  6 18  2  0
  7 15  4  0
  7 16  1  0
  7 27  4  0
  8 18  1  0
 10 18  1  0
 10 20  1  0
 11 15  4  0
 11 26  1  0
 13 22  4  0
 16 19  1  0
 16 20  2  0
 17 19  4  0
 17 21  4  0
 19 22  4  0
 20 28  1  0
 25 27  4  0
M  END
$$$$

 Created by Python create_sdf_string function

 28 30  0  0  0  0  0  0  0  0999 V2000
   11.4592   11.2893   18.7941 C   0  0  0  0  0  0  0  0  0  0  0  0
    3.4202    7.9009   20.3866 C   0  0  0  0  0  0  0  0  0  0  0  0
   13.5280   10.3522   19.3586 C   0  0  0  0  0  0  0  0  0  0  0  0
    9.6923    5.6468   22.7891 C   0  0  0  0  0  0  0  0  0  0  0  0
   11.7756   10.2554   20.8841 N   0  0  0  0  0  0  0  0  0  0  0  0
    8.9876   11.9370   19.8757 O   0  0  0  0  0  0  0  0  0  0  0  0
    6.0167    8.4478   21.1089 C   0  0  0  0  0  0  0  0  0  0  0  0
   11.0002   10.8890   20.0262 C   0  0  0  0  0  0  0  0  0  0  0  0
    2.1721    7.7393   20.0315 O   0  0  0  0  0  0  0  0  0  0  0  0
    9.1107   10.3880   21.3769 N   0  0  0  0  0  0  0  0  0  0  0  0
    3.9102    9.2008   20.3124 C   0  0  0  0  0  0  0  0  0  0  0  0
   12.7292   10.9960   18.4597 C   0  0  0  0  0  0  0  0  0  0  0  0
    9.3798    6.6793   23.6625 C   0  0  0  0  0  0  0  0  0  0  0  0
   14.7425   10.0739   19.0802 O   0  0  0  0  0  0  0  0  0  0  0  0
    5.1894    9.4673   20.7118 C   0  0  0  0  0  0  0  0  0  0  0  0
    7.3773    8.8224   21.4870 C   0  0  0  0  0  0  0  0  0  0  0  0
    8.4391    6.6439   21.0235 C   0  0  0  0  0  0  0  0  0  0  0  0
    9.6494   11.1353   20.4167 C   0  0  0  0  0  0  0  0  0  0  0  0
    8.1431    7.6829   21.9046 C   0  0  0  0  0  0  0  0  0  0  0  0
    7.7796   10.1314   21.5115 N   0  0  0  0  0  0  0  0  0  0  0  0
    9.2768    5.6183   21.4437 C   0  0  0  0  0  0  0  0  0  0  0  0
    8.6315    7.7322   23.1768 C   0  0  0  0  0  0  0  0  0  0  0  0
   13.0537    9.9821   20.5781 C   0  0  0  0  0  0  0  0  0  0  0  0
   10.3850    4.6575   23.2386 O   0  0  0  0  0  0  0  0  0  0  0  0
    4.2069    6.8450   20.7994 C   0  0  0  0  0  0  0  0  0  0  0  0
    3.0726   10.1043   19.8522 O   0  0  0  0  0  0  0  0  0  0  0  0
    5.5057    7.1196   21.1155 C   0  0  0  0  0  0  0  0  0  0  0  0
    7.0367   11.0229   21.9948 O   0  0  0  0  0  0  0  0  0  0  0  0
  1  8  4  0
  1 12  4  0
  2  9  1  0
  2 11  4  0
  2 25  4  0
  3 12  4  0
  3 14  1  0
  3 23  4  0
  4 13  4  0
  4 21  4  0
  4 24  1  0
  5  8  4  0
  5 23  4  0
  6 18  2  0
  7 15  4  0
  7 16  1  0
  7 27  4  0
  8 18  1  0
 10 18  1  0
 10 20  1  0
 11 15  4  0
 11 26  1  0
 13 22  4  0
 16 19  1  0
 16 20  2  0
 17 19  4  0
 17 21  4  0
 19 22  4  0
 20 28  1  0
 25 27  4  0
M  END
$$$$

 Created by Python create_sdf_string function

 28 30  0  0  0  0  0  0  0  0999 V2000
   11.4592   11.2893   18.7941 C   0  0  0  0  0  0  0  0  0  0  0  0
    3.4202    7.9009   20.3866 C   0  0  0  0  0  0  0  0  0  0  0  0
   13.5280   10.3522   19.3586 C   0  0  0  0  0  0  0  0  0  0  0  0
    9.6923    5.6468   22.7891 C   0  0  0  0  0  0  0  0  0  0  0  0
   11.7756   10.2554   20.8841 N   0  0  0  0  0  0  0  0  0  0  0  0
    8.9876   11.9370   19.8757 O   0  0  0  0  0  0  0  0  0  0  0  0
    6.0167    8.4478   21.1089 C   0  0  0  0  0  0  0  0  0  0  0  0
   11.0002   10.8890   20.0262 C   0  0  0  0  0  0  0  0  0  0  0  0
    2.1721    7.7393   20.0315 O   0  0  0  0  0  0  0  0  0  0  0  0
    9.1107   10.3880   21.3769 N   0  0  0  0  0  0  0  0  0  0  0  0
    3.9102    9.2008   20.3124 C   0  0  0  0  0  0  0  0  0  0  0  0
   12.7292   10.9960   18.4597 C   0  0  0  0  0  0  0  0  0  0  0  0
    9.3798    6.6793   23.6625 C   0  0  0  0  0  0  0  0  0  0  0  0
   14.7425   10.0739   19.0802 O   0  0  0  0  0  0  0  0  0  0  0  0
    5.1894    9.4673   20.7118 C   0  0  0  0  0  0  0  0  0  0  0  0
    7.3773    8.8224   21.4870 C   0  0  0  0  0  0  0  0  0  0  0  0
    8.4391    6.6439   21.0235 C   0  0  0  0  0  0  0  0  0  0  0  0
    9.6494   11.1353   20.4167 C   0  0  0  0  0  0  0  0  0  0  0  0
    8.1431    7.6829   21.9046 C   0  0  0  0  0  0  0  0  0  0  0  0
    7.7796   10.1314   21.5115 N   0  0  0  0  0  0  0  0  0  0  0  0
    9.2768    5.6183   21.4437 C   0  0  0  0  0  0  0  0  0  0  0  0
    8.6315    7.7322   23.1768 C   0  0  0  0  0  0  0  0  0  0  0  0
   13.0537    9.9821   20.5781 C   0  0  0  0  0  0  0  0  0  0  0  0
   10.3850    4.6575   23.2386 O   0  0  0  0  0  0  0  0  0  0  0  0
    4.2069    6.8450   20.7994 C   0  0  0  0  0  0  0  0  0  0  0  0
    3.0726   10.1043   19.8522 O   0  0  0  0  0  0  0  0  0  0  0  0
    5.5057    7.1196   21.1155 C   0  0  0  0  0  0  0  0  0  0  0  0
    7.0367   11.0229   21.9948 O   0  0  0  0  0  0  0  0  0  0  0  0
  1  8  4  0
  1 12  4  0
  2  9  1  0
  2 11  4  0
  2 25  4  0
  3 12  4  0
  3 14  1  0
  3 23  4  0
  4 13  4  0
  4 21  4  0
  4 24  1  0
  5  8  4  0
  5 23  4  0
  6 18  2  0
  7 15  4  0
  7 16  1  0
  7 27  4  0
  8 18  1  0
 10 18  1  0
 10 20  1  0
 11 15  4  0
 11 26  1  0
 13 22  4  0
 16 19  1  0
 16 20  2  0
 17 19  4  0
 17 21  4  0
 19 22  4  0
 20 28  1  0
 25 27  4  0
M  END
$$$$

 Created by Python create_sdf_string function

 28 30  0  0  0  0  0  0  0  0999 V2000
   11.4592   11.2893   18.7941 C   0  0  0  0  0  0  0  0  0  0  0  0
    3.4202    7.9009   20.3866 C   0  0  0  0  0  0  0  0  0  0  0  0
   13.5280   10.3522   19.3586 C   0  0  0  0  0  0  0  0  0  0  0  0
    9.6923    5.6468   22.7891 C   0  0  0  0  0  0  0  0  0  0  0  0
   11.7756   10.2554   20.8841 N   0  0  0  0  0  0  0  0  0  0  0  0
    8.9876   11.9370   19.8757 O   0  0  0  0  0  0  0  0  0  0  0  0
    6.0167    8.4478   21.1089 C   0  0  0  0  0  0  0  0  0  0  0  0
   11.0002   10.8890   20.0262 C   0  0  0  0  0  0  0  0  0  0  0  0
    2.1721    7.7393   20.0315 O   0  0  0  0  0  0  0  0  0  0  0  0
    9.1107   10.3880   21.3769 N   0  0  0  0  0  0  0  0  0  0  0  0
    3.9102    9.2008   20.3124 C   0  0  0  0  0  0  0  0  0  0  0  0
   12.7292   10.9960   18.4597 C   0  0  0  0  0  0  0  0  0  0  0  0
    9.3798    6.6793   23.6625 C   0  0  0  0  0  0  0  0  0  0  0  0
   14.7425   10.0739   19.0802 O   0  0  0  0  0  0  0  0  0  0  0  0
    5.1894    9.4673   20.7118 C   0  0  0  0  0  0  0  0  0  0  0  0
    7.3773    8.8224   21.4870 C   0  0  0  0  0  0  0  0  0  0  0  0
    8.4391    6.6439   21.0235 C   0  0  0  0  0  0  0  0  0  0  0  0
    9.6494   11.1353   20.4167 C   0  0  0  0  0  0  0  0  0  0  0  0
    8.1431    7.6829   21.9046 C   0  0  0  0  0  0  0  0  0  0  0  0
    7.7796   10.1314   21.5115 N   0  0  0  0  0  0  0  0  0  0  0  0
    9.2768    5.6183   21.4437 C   0  0  0  0  0  0  0  0  0  0  0  0
    8.6315    7.7322   23.1768 C   0  0  0  0  0  0  0  0  0  0  0  0
   13.0537    9.9821   20.5781 C   0  0  0  0  0  0  0  0  0  0  0  0
   10.3850    4.6575   23.2386 O   0  0  0  0  0  0  0  0  0  0  0  0
    4.2069    6.8450   20.7994 C   0  0  0  0  0  0  0  0  0  0  0  0
    3.0726   10.1043   19.8522 O   0  0  0  0  0  0  0  0  0  0  0  0
    5.5057    7.1196   21.1155 C   0  0  0  0  0  0  0  0  0  0  0  0
    7.0367   11.0229   21.9948 O   0  0  0  0  0  0  0  0  0  0  0  0
  1  8  4  0
  1 12  4  0
  2  9  1  0
  2 11  4  0
  2 25  4  0
  3 12  4  0
  3 14  1  0
  3 23  4  0
  4 13  4  0
  4 21  4  0
  4 24  1  0
  5  8  4  0
  5 23  4  0
  6 18  2  0
  7 15  4  0
  7 16  1  0
  7 27  4  0
  8 18  1  0
 10 18  1  0
 10 20  1  0
 11 15  4  0
 11 26  1  0
 13 22  4  0
 16 19  1  0
 16 20  2  0
 17 19  4  0
 17 21  4  0
 19 22  4  0
 20 28  1  0
 25 27  4  0
M  END
$$$$

 Created by Python create_sdf_string function

 28 30  0  0  0  0  0  0  0  0999 V2000
   11.4592   11.2893   18.7941 C   0  0  0  0  0  0  0  0  0  0  0  0
    3.4202    7.9009   20.3866 C   0  0  0  0  0  0  0  0  0  0  0  0
   13.5280   10.3522   19.3586 C   0  0  0  0  0  0  0  0  0  0  0  0
    9.6923    5.6468   22.7891 C   0  0  0  0  0  0  0  0  0  0  0  0
   11.7756   10.2554   20.8841 N   0  0  0  0  0  0  0  0  0  0  0  0
    8.9876   11.9370   19.8757 O   0  0  0  0  0  0  0  0  0  0  0  0
    6.0167    8.4478   21.1089 C   0  0  0  0  0  0  0  0  0  0  0  0
   11.0002   10.8890   20.0262 C   0  0  0  0  0  0  0  0  0  0  0  0
    2.1721    7.7393   20.0315 O   0  0  0  0  0  0  0  0  0  0  0  0
    9.1107   10.3880   21.3769 N   0  0  0  0  0  0  0  0  0  0  0  0
    3.9102    9.2008   20.3124 C   0  0  0  0  0  0  0  0  0  0  0  0
   12.7292   10.9960   18.4597 C   0  0  0  0  0  0  0  0  0  0  0  0
    9.3798    6.6793   23.6625 C   0  0  0  0  0  0  0  0  0  0  0  0
   14.7425   10.0739   19.0802 O   0  0  0  0  0  0  0  0  0  0  0  0
    5.1894    9.4673   20.7118 C   0  0  0  0  0  0  0  0  0  0  0  0
    7.3773    8.8224   21.4870 C   0  0  0  0  0  0  0  0  0  0  0  0
    8.4391    6.6439   21.0235 C   0  0  0  0  0  0  0  0  0  0  0  0
    9.6494   11.1353   20.4167 C   0  0  0  0  0  0  0  0  0  0  0  0
    8.1431    7.6829   21.9046 C   0  0  0  0  0  0  0  0  0  0  0  0
    7.7796   10.1314   21.5115 N   0  0  0  0  0  0  0  0  0  0  0  0
    9.2768    5.6183   21.4437 C   0  0  0  0  0  0  0  0  0  0  0  0
    8.6315    7.7322   23.1768 C   0  0  0  0  0  0  0  0  0  0  0  0
   13.0537    9.9821   20.5781 C   0  0  0  0  0  0  0  0  0  0  0  0
   10.3850    4.6575   23.2386 O   0  0  0  0  0  0  0  0  0  0  0  0
    4.2069    6.8450   20.7994 C   0  0  0  0  0  0  0  0  0  0  0  0
    3.0726   10.1043   19.8522 O   0  0  0  0  0  0  0  0  0  0  0  0
    5.5057    7.1196   21.1155 C   0  0  0  0  0  0  0  0  0  0  0  0
    7.0367   11.0229   21.9948 O   0  0  0  0  0  0  0  0  0  0  0  0
  1  8  4  0
  1 12  4  0
  2  9  1  0
  2 11  4  0
  2 25  4  0
  3 12  4  0
  3 14  1  0
  3 23  4  0
  4 13  4  0
  4 21  4  0
  4 24  1  0
  5  8  4  0
  5 23  4  0
  6 18  2  0
  7 15  4  0
  7 16  1  0
  7 27  4  0
  8 18  1  0
 10 18  1  0
 10 20  1  0
 11 15  4  0
 11 26  1  0
 13 22  4  0
 16 19  1  0
 16 20  2  0
 17 19  4  0
 17 21  4  0
 19 22  4  0
 20 28  1  0
 25 27  4  0
M  END
$$$$

 Created by Python create_sdf_string function

 28 30  0  0  0  0  0  0  0  0999 V2000
   11.4592   11.2893   18.7941 C   0  0  0  0  0  0  0  0  0  0  0  0
    3.4202    7.9009   20.3866 C   0  0  0  0  0  0  0  0  0  0  0  0
   13.5280   10.3522   19.3586 C   0  0  0  0  0  0  0  0  0  0  0  0
    9.6923    5.6468   22.7891 C   0  0  0  0  0  0  0  0  0  0  0  0
   11.7756   10.2554   20.8841 N   0  0  0  0  0  0  0  0  0  0  0  0
    8.9876   11.9370   19.8757 O   0  0  0  0  0  0  0  0  0  0  0  0
    6.0167    8.4478   21.1089 C   0  0  0  0  0  0  0  0  0  0  0  0
   11.0002   10.8890   20.0262 C   0  0  0  0  0  0  0  0  0  0  0  0
    2.1721    7.7393   20.0315 O   0  0  0  0  0  0  0  0  0  0  0  0
    9.1107   10.3880   21.3769 N   0  0  0  0  0  0  0  0  0  0  0  0
    3.9102    9.2008   20.3124 C   0  0  0  0  0  0  0  0  0  0  0  0
   12.7292   10.9960   18.4597 C   0  0  0  0  0  0  0  0  0  0  0  0
    9.3798    6.6793   23.6625 C   0  0  0  0  0  0  0  0  0  0  0  0
   14.7425   10.0739   19.0802 O   0  0  0  0  0  0  0  0  0  0  0  0
    5.1894    9.4673   20.7118 C   0  0  0  0  0  0  0  0  0  0  0  0
    7.3773    8.8224   21.4870 C   0  0  0  0  0  0  0  0  0  0  0  0
    8.4391    6.6439   21.0235 C   0  0  0  0  0  0  0  0  0  0  0  0
    9.6494   11.1353   20.4167 C   0  0  0  0  0  0  0  0  0  0  0  0
    8.1431    7.6829   21.9046 C   0  0  0  0  0  0  0  0  0  0  0  0
    7.7796   10.1314   21.5115 N   0  0  0  0  0  0  0  0  0  0  0  0
    9.2768    5.6183   21.4437 C   0  0  0  0  0  0  0  0  0  0  0  0
    8.6315    7.7322   23.1768 C   0  0  0  0  0  0  0  0  0  0  0  0
   13.0537    9.9821   20.5781 C   0  0  0  0  0  0  0  0  0  0  0  0
   10.3850    4.6575   23.2386 O   0  0  0  0  0  0  0  0  0  0  0  0
    4.2069    6.8450   20.7994 C   0  0  0  0  0  0  0  0  0  0  0  0
    3.0726   10.1043   19.8522 O   0  0  0  0  0  0  0  0  0  0  0  0
    5.5057    7.1196   21.1155 C   0  0  0  0  0  0  0  0  0  0  0  0
    7.0367   11.0229   21.9948 O   0  0  0  0  0  0  0  0  0  0  0  0
  1  8  4  0
  1 12  4  0
  2  9  1  0
  2 11  4  0
  2 25  4  0
  3 12  4  0
  3 14  1  0
  3 23  4  0
  4 13  4  0
  4 21  4  0
  4 24  1  0
  5  8  4  0
  5 23  4  0
  6 18  2  0
  7 15  4  0
  7 16  1  0
  7 27  4  0
  8 18  1  0
 10 18  1  0
 10 20  1  0
 11 15  4  0
 11 26  1  0
 13 22  4  0
 16 19  1  0
 16 20  2  0
 17 19  4  0
 17 21  4  0
 19 22  4  0
 20 28  1  0
 25 27  4  0
M  END
$$$$

 Created by Python create_sdf_string function

 28 30  0  0  0  0  0  0  0  0999 V2000
   11.4592   11.2893   18.7941 C   0  0  0  0  0  0  0  0  0  0  0  0
    3.4202    7.9009   20.3866 C   0  0  0  0  0  0  0  0  0  0  0  0
   13.5280   10.3522   19.3586 C   0  0  0  0  0  0  0  0  0  0  0  0
    9.6923    5.6468   22.7891 C   0  0  0  0  0  0  0  0  0  0  0  0
   11.7756   10.2554   20.8841 N   0  0  0  0  0  0  0  0  0  0  0  0
    8.9876   11.9370   19.8757 O   0  0  0  0  0  0  0  0  0  0  0  0
    6.0167    8.4478   21.1089 C   0  0  0  0  0  0  0  0  0  0  0  0
   11.0002   10.8890   20.0262 C   0  0  0  0  0  0  0  0  0  0  0  0
    2.1721    7.7393   20.0315 O   0  0  0  0  0  0  0  0  0  0  0  0
    9.1107   10.3880   21.3769 N   0  0  0  0  0  0  0  0  0  0  0  0
    3.9102    9.2008   20.3124 C   0  0  0  0  0  0  0  0  0  0  0  0
   12.7292   10.9960   18.4597 C   0  0  0  0  0  0  0  0  0  0  0  0
    9.3798    6.6793   23.6625 C   0  0  0  0  0  0  0  0  0  0  0  0
   14.7425   10.0739   19.0802 O   0  0  0  0  0  0  0  0  0  0  0  0
    5.1894    9.4673   20.7118 C   0  0  0  0  0  0  0  0  0  0  0  0
    7.3773    8.8224   21.4870 C   0  0  0  0  0  0  0  0  0  0  0  0
    8.4391    6.6439   21.0235 C   0  0  0  0  0  0  0  0  0  0  0  0
    9.6494   11.1353   20.4167 C   0  0  0  0  0  0  0  0  0  0  0  0
    8.1431    7.6829   21.9046 C   0  0  0  0  0  0  0  0  0  0  0  0
    7.7796   10.1314   21.5115 N   0  0  0  0  0  0  0  0  0  0  0  0
    9.2768    5.6183   21.4437 C   0  0  0  0  0  0  0  0  0  0  0  0
    8.6315    7.7322   23.1768 C   0  0  0  0  0  0  0  0  0  0  0  0
   13.0537    9.9821   20.5781 C   0  0  0  0  0  0  0  0  0  0  0  0
   10.3850    4.6575   23.2386 O   0  0  0  0  0  0  0  0  0  0  0  0
    4.2069    6.8450   20.7994 C   0  0  0  0  0  0  0  0  0  0  0  0
    3.0726   10.1043   19.8522 O   0  0  0  0  0  0  0  0  0  0  0  0
    5.5057    7.1196   21.1155 C   0  0  0  0  0  0  0  0  0  0  0  0
    7.0367   11.0229   21.9948 O   0  0  0  0  0  0  0  0  0  0  0  0
  1  8  4  0
  1 12  4  0
  2  9  1  0
  2 11  4  0
  2 25  4  0
  3 12  4  0
  3 14  1  0
  3 23  4  0
  4 13  4  0
  4 21  4  0
  4 24  1  0
  5  8  4  0
  5 23  4  0
  6 18  2  0
  7 15  4  0
  7 16  1  0
  7 27  4  0
  8 18  1  0
 10 18  1  0
 10 20  1  0
 11 15  4  0
 11 26  1  0
 13 22  4  0
 16 19  1  0
 16 20  2  0
 17 19  4  0
 17 21  4  0
 19 22  4  0
 20 28  1  0
 25 27  4  0
M  END
$$$$

 Created by Python create_sdf_string function

 28 30  0  0  0  0  0  0  0  0999 V2000
   11.4592   11.2893   18.7941 C   0  0  0  0  0  0  0  0  0  0  0  0
    3.4202    7.9009   20.3866 C   0  0  0  0  0  0  0  0  0  0  0  0
   13.5280   10.3522   19.3586 C   0  0  0  0  0  0  0  0  0  0  0  0
    9.6923    5.6468   22.7891 C   0  0  0  0  0  0  0  0  0  0  0  0
   11.7756   10.2554   20.8841 N   0  0  0  0  0  0  0  0  0  0  0  0
    8.9876   11.9370   19.8757 O   0  0  0  0  0  0  0  0  0  0  0  0
    6.0167    8.4478   21.1089 C   0  0  0  0  0  0  0  0  0  0  0  0
   11.0002   10.8890   20.0262 C   0  0  0  0  0  0  0  0  0  0  0  0
    2.1721    7.7393   20.0315 O   0  0  0  0  0  0  0  0  0  0  0  0
    9.1107   10.3880   21.3769 N   0  0  0  0  0  0  0  0  0  0  0  0
    3.9102    9.2008   20.3124 C   0  0  0  0  0  0  0  0  0  0  0  0
   12.7292   10.9960   18.4597 C   0  0  0  0  0  0  0  0  0  0  0  0
    9.3798    6.6793   23.6625 C   0  0  0  0  0  0  0  0  0  0  0  0
   14.7425   10.0739   19.0802 O   0  0  0  0  0  0  0  0  0  0  0  0
    5.1894    9.4673   20.7118 C   0  0  0  0  0  0  0  0  0  0  0  0
    7.3773    8.8224   21.4870 C   0  0  0  0  0  0  0  0  0  0  0  0
    8.4391    6.6439   21.0235 C   0  0  0  0  0  0  0  0  0  0  0  0
    9.6494   11.1353   20.4167 C   0  0  0  0  0  0  0  0  0  0  0  0
    8.1431    7.6829   21.9046 C   0  0  0  0  0  0  0  0  0  0  0  0
    7.7796   10.1314   21.5115 N   0  0  0  0  0  0  0  0  0  0  0  0
    9.2768    5.6183   21.4437 C   0  0  0  0  0  0  0  0  0  0  0  0
    8.6315    7.7322   23.1768 C   0  0  0  0  0  0  0  0  0  0  0  0
   13.0537    9.9821   20.5781 C   0  0  0  0  0  0  0  0  0  0  0  0
   10.3850    4.6575   23.2386 O   0  0  0  0  0  0  0  0  0  0  0  0
    4.2069    6.8450   20.7994 C   0  0  0  0  0  0  0  0  0  0  0  0
    3.0726   10.1043   19.8522 O   0  0  0  0  0  0  0  0  0  0  0  0
    5.5057    7.1196   21.1155 C   0  0  0  0  0  0  0  0  0  0  0  0
    7.0367   11.0229   21.9948 O   0  0  0  0  0  0  0  0  0  0  0  0
  1  8  4  0
  1 12  4  0
  2  9  1  0
  2 11  4  0
  2 25  4  0
  3 12  4  0
  3 14  1  0
  3 23  4  0
  4 13  4  0
  4 21  4  0
  4 24  1  0
  5  8  4  0
  5 23  4  0
  6 18  2  0
  7 15  4  0
  7 16  1  0
  7 27  4  0
  8 18  1  0
 10 18  1  0
 10 20  1  0
 11 15  4  0
 11 26  1  0
 13 22  4  0
 16 19  1  0
 16 20  2  0
 17 19  4  0
 17 21  4  0
 19 22  4  0
 20 28  1  0
 25 27  4  0
M  END
$$$$

 Created by Python create_sdf_string function

 28 30  0  0  0  0  0  0  0  0999 V2000
   11.4592   11.2893   18.7941 C   0  0  0  0  0  0  0  0  0  0  0  0
    3.4202    7.9009   20.3866 C   0  0  0  0  0  0  0  0  0  0  0  0
   13.5280   10.3522   19.3586 C   0  0  0  0  0  0  0  0  0  0  0  0
    9.6923    5.6468   22.7891 C   0  0  0  0  0  0  0  0  0  0  0  0
   11.7756   10.2554   20.8841 N   0  0  0  0  0  0  0  0  0  0  0  0
    8.9876   11.9370   19.8757 O   0  0  0  0  0  0  0  0  0  0  0  0
    6.0167    8.4478   21.1089 C   0  0  0  0  0  0  0  0  0  0  0  0
   11.0002   10.8890   20.0262 C   0  0  0  0  0  0  0  0  0  0  0  0
    2.1721    7.7393   20.0315 O   0  0  0  0  0  0  0  0  0  0  0  0
    9.1107   10.3880   21.3769 N   0  0  0  0  0  0  0  0  0  0  0  0
    3.9102    9.2008   20.3124 C   0  0  0  0  0  0  0  0  0  0  0  0
   12.7292   10.9960   18.4597 C   0  0  0  0  0  0  0  0  0  0  0  0
    9.3798    6.6793   23.6625 C   0  0  0  0  0  0  0  0  0  0  0  0
   14.7425   10.0739   19.0802 O   0  0  0  0  0  0  0  0  0  0  0  0
    5.1894    9.4673   20.7118 C   0  0  0  0  0  0  0  0  0  0  0  0
    7.3773    8.8224   21.4870 C   0  0  0  0  0  0  0  0  0  0  0  0
    8.4391    6.6439   21.0235 C   0  0  0  0  0  0  0  0  0  0  0  0
    9.6494   11.1353   20.4167 C   0  0  0  0  0  0  0  0  0  0  0  0
    8.1431    7.6829   21.9046 C   0  0  0  0  0  0  0  0  0  0  0  0
    7.7796   10.1314   21.5115 N   0  0  0  0  0  0  0  0  0  0  0  0
    9.2768    5.6183   21.4437 C   0  0  0  0  0  0  0  0  0  0  0  0
    8.6315    7.7322   23.1768 C   0  0  0  0  0  0  0  0  0  0  0  0
   13.0537    9.9821   20.5781 C   0  0  0  0  0  0  0  0  0  0  0  0
   10.3850    4.6575   23.2386 O   0  0  0  0  0  0  0  0  0  0  0  0
    4.2069    6.8450   20.7994 C   0  0  0  0  0  0  0  0  0  0  0  0
    3.0726   10.1043   19.8522 O   0  0  0  0  0  0  0  0  0  0  0  0
    5.5057    7.1196   21.1155 C   0  0  0  0  0  0  0  0  0  0  0  0
    7.0367   11.0229   21.9948 O   0  0  0  0  0  0  0  0  0  0  0  0
  1  8  4  0
  1 12  4  0
  2  9  1  0
  2 11  4  0
  2 25  4  0
  3 12  4  0
  3 14  1  0
  3 23  4  0
  4 13  4  0
  4 21  4  0
  4 24  1  0
  5  8  4  0
  5 23  4  0
  6 18  2  0
  7 15  4  0
  7 16  1  0
  7 27  4  0
  8 18  1  0
 10 18  1  0
 10 20  1  0
 11 15  4  0
 11 26  1  0
 13 22  4  0
 16 19  1  0
 16 20  2  0
 17 19  4  0
 17 21  4  0
 19 22  4  0
 20 28  1  0
 25 27  4  0
M  END
$$$$

 Created by Python create_sdf_string function

 28 30  0  0  0  0  0  0  0  0999 V2000
   11.4592   11.2893   18.7941 C   0  0  0  0  0  0  0  0  0  0  0  0
    3.4202    7.9009   20.3866 C   0  0  0  0  0  0  0  0  0  0  0  0
   13.5280   10.3522   19.3586 C   0  0  0  0  0  0  0  0  0  0  0  0
    9.6923    5.6468   22.7891 C   0  0  0  0  0  0  0  0  0  0  0  0
   11.7756   10.2554   20.8841 N   0  0  0  0  0  0  0  0  0  0  0  0
    8.9876   11.9370   19.8757 O   0  0  0  0  0  0  0  0  0  0  0  0
    6.0167    8.4478   21.1089 C   0  0  0  0  0  0  0  0  0  0  0  0
   11.0002   10.8890   20.0262 C   0  0  0  0  0  0  0  0  0  0  0  0
    2.1721    7.7393   20.0315 O   0  0  0  0  0  0  0  0  0  0  0  0
    9.1107   10.3880   21.3769 N   0  0  0  0  0  0  0  0  0  0  0  0
    3.9102    9.2008   20.3124 C   0  0  0  0  0  0  0  0  0  0  0  0
   12.7292   10.9960   18.4597 C   0  0  0  0  0  0  0  0  0  0  0  0
    9.3798    6.6793   23.6625 C   0  0  0  0  0  0  0  0  0  0  0  0
   14.7425   10.0739   19.0802 O   0  0  0  0  0  0  0  0  0  0  0  0
    5.1894    9.4673   20.7118 C   0  0  0  0  0  0  0  0  0  0  0  0
    7.3773    8.8224   21.4870 C   0  0  0  0  0  0  0  0  0  0  0  0
    8.4391    6.6439   21.0235 C   0  0  0  0  0  0  0  0  0  0  0  0
    9.6494   11.1353   20.4167 C   0  0  0  0  0  0  0  0  0  0  0  0
    8.1431    7.6829   21.9046 C   0  0  0  0  0  0  0  0  0  0  0  0
    7.7796   10.1314   21.5115 N   0  0  0  0  0  0  0  0  0  0  0  0
    9.2768    5.6183   21.4437 C   0  0  0  0  0  0  0  0  0  0  0  0
    8.6315    7.7322   23.1768 C   0  0  0  0  0  0  0  0  0  0  0  0
   13.0537    9.9821   20.5781 C   0  0  0  0  0  0  0  0  0  0  0  0
   10.3850    4.6575   23.2386 O   0  0  0  0  0  0  0  0  0  0  0  0
    4.2069    6.8450   20.7994 C   0  0  0  0  0  0  0  0  0  0  0  0
    3.0726   10.1043   19.8522 O   0  0  0  0  0  0  0  0  0  0  0  0
    5.5057    7.1196   21.1155 C   0  0  0  0  0  0  0  0  0  0  0  0
    7.0367   11.0229   21.9948 O   0  0  0  0  0  0  0  0  0  0  0  0
  1  8  4  0
  1 12  4  0
  2  9  1  0
  2 11  4  0
  2 25  4  0
  3 12  4  0
  3 14  1  0
  3 23  4  0
  4 13  4  0
  4 21  4  0
  4 24  1  0
  5  8  4  0
  5 23  4  0
  6 18  2  0
  7 15  4  0
  7 16  1  0
  7 27  4  0
  8 18  1  0
 10 18  1  0
 10 20  1  0
 11 15  4  0
 11 26  1  0
 13 22  4  0
 16 19  1  0
 16 20  2  0
 17 19  4  0
 17 21  4  0
 19 22  4  0
 20 28  1  0
 25 27  4  0
M  END
$$$$

 Created by Python create_sdf_string function

 28 30  0  0  0  0  0  0  0  0999 V2000
   11.4592   11.2893   18.7941 C   0  0  0  0  0  0  0  0  0  0  0  0
    3.4202    7.9009   20.3866 C   0  0  0  0  0  0  0  0  0  0  0  0
   13.5280   10.3522   19.3586 C   0  0  0  0  0  0  0  0  0  0  0  0
    9.6923    5.6468   22.7891 C   0  0  0  0  0  0  0  0  0  0  0  0
   11.7756   10.2554   20.8841 N   0  0  0  0  0  0  0  0  0  0  0  0
    8.9876   11.9370   19.8757 O   0  0  0  0  0  0  0  0  0  0  0  0
    6.0167    8.4478   21.1089 C   0  0  0  0  0  0  0  0  0  0  0  0
   11.0002   10.8890   20.0262 C   0  0  0  0  0  0  0  0  0  0  0  0
    2.1721    7.7393   20.0315 O   0  0  0  0  0  0  0  0  0  0  0  0
    9.1107   10.3880   21.3769 N   0  0  0  0  0  0  0  0  0  0  0  0
    3.9102    9.2008   20.3124 C   0  0  0  0  0  0  0  0  0  0  0  0
   12.7292   10.9960   18.4597 C   0  0  0  0  0  0  0  0  0  0  0  0
    9.3798    6.6793   23.6625 C   0  0  0  0  0  0  0  0  0  0  0  0
   14.7425   10.0739   19.0802 O   0  0  0  0  0  0  0  0  0  0  0  0
    5.1894    9.4673   20.7118 C   0  0  0  0  0  0  0  0  0  0  0  0
    7.3773    8.8224   21.4870 C   0  0  0  0  0  0  0  0  0  0  0  0
    8.4391    6.6439   21.0235 C   0  0  0  0  0  0  0  0  0  0  0  0
    9.6494   11.1353   20.4167 C   0  0  0  0  0  0  0  0  0  0  0  0
    8.1431    7.6829   21.9046 C   0  0  0  0  0  0  0  0  0  0  0  0
    7.7796   10.1314   21.5115 N   0  0  0  0  0  0  0  0  0  0  0  0
    9.2768    5.6183   21.4437 C   0  0  0  0  0  0  0  0  0  0  0  0
    8.6315    7.7322   23.1768 C   0  0  0  0  0  0  0  0  0  0  0  0
   13.0537    9.9821   20.5781 C   0  0  0  0  0  0  0  0  0  0  0  0
   10.3850    4.6575   23.2386 O   0  0  0  0  0  0  0  0  0  0  0  0
    4.2069    6.8450   20.7994 C   0  0  0  0  0  0  0  0  0  0  0  0
    3.0726   10.1043   19.8522 O   0  0  0  0  0  0  0  0  0  0  0  0
    5.5057    7.1196   21.1155 C   0  0  0  0  0  0  0  0  0  0  0  0
    7.0367   11.0229   21.9948 O   0  0  0  0  0  0  0  0  0  0  0  0
  1  8  4  0
  1 12  4  0
  2  9  1  0
  2 11  4  0
  2 25  4  0
  3 12  4  0
  3 14  1  0
  3 23  4  0
  4 13  4  0
  4 21  4  0
  4 24  1  0
  5  8  4  0
  5 23  4  0
  6 18  2  0
  7 15  4  0
  7 16  1  0
  7 27  4  0
  8 18  1  0
 10 18  1  0
 10 20  1  0
 11 15  4  0
 11 26  1  0
 13 22  4  0
 16 19  1  0
 16 20  2  0
 17 19  4  0
 17 21  4  0
 19 22  4  0
 20 28  1  0
 25 27  4  0
M  END
$$$$

 Created by Python create_sdf_string function

 28 30  0  0  0  0  0  0  0  0999 V2000
   11.4592   11.2893   18.7941 C   0  0  0  0  0  0  0  0  0  0  0  0
    3.4202    7.9009   20.3866 C   0  0  0  0  0  0  0  0  0  0  0  0
   13.5280   10.3522   19.3586 C   0  0  0  0  0  0  0  0  0  0  0  0
    9.6923    5.6468   22.7891 C   0  0  0  0  0  0  0  0  0  0  0  0
   11.7756   10.2554   20.8841 N   0  0  0  0  0  0  0  0  0  0  0  0
    8.9876   11.9370   19.8757 O   0  0  0  0  0  0  0  0  0  0  0  0
    6.0167    8.4478   21.1089 C   0  0  0  0  0  0  0  0  0  0  0  0
   11.0002   10.8890   20.0262 C   0  0  0  0  0  0  0  0  0  0  0  0
    2.1721    7.7393   20.0315 O   0  0  0  0  0  0  0  0  0  0  0  0
    9.1107   10.3880   21.3769 N   0  0  0  0  0  0  0  0  0  0  0  0
    3.9102    9.2008   20.3124 C   0  0  0  0  0  0  0  0  0  0  0  0
   12.7292   10.9960   18.4597 C   0  0  0  0  0  0  0  0  0  0  0  0
    9.3798    6.6793   23.6625 C   0  0  0  0  0  0  0  0  0  0  0  0
   14.7425   10.0739   19.0802 O   0  0  0  0  0  0  0  0  0  0  0  0
    5.1894    9.4673   20.7118 C   0  0  0  0  0  0  0  0  0  0  0  0
    7.3773    8.8224   21.4870 C   0  0  0  0  0  0  0  0  0  0  0  0
    8.4391    6.6439   21.0235 C   0  0  0  0  0  0  0  0  0  0  0  0
    9.6494   11.1353   20.4167 C   0  0  0  0  0  0  0  0  0  0  0  0
    8.1431    7.6829   21.9046 C   0  0  0  0  0  0  0  0  0  0  0  0
    7.7796   10.1314   21.5115 N   0  0  0  0  0  0  0  0  0  0  0  0
    9.2768    5.6183   21.4437 C   0  0  0  0  0  0  0  0  0  0  0  0
    8.6315    7.7322   23.1768 C   0  0  0  0  0  0  0  0  0  0  0  0
   13.0537    9.9821   20.5781 C   0  0  0  0  0  0  0  0  0  0  0  0
   10.3850    4.6575   23.2386 O   0  0  0  0  0  0  0  0  0  0  0  0
    4.2069    6.8450   20.7994 C   0  0  0  0  0  0  0  0  0  0  0  0
    3.0726   10.1043   19.8522 O   0  0  0  0  0  0  0  0  0  0  0  0
    5.5057    7.1196   21.1155 C   0  0  0  0  0  0  0  0  0  0  0  0
    7.0367   11.0229   21.9948 O   0  0  0  0  0  0  0  0  0  0  0  0
  1  8  4  0
  1 12  4  0
  2  9  1  0
  2 11  4  0
  2 25  4  0
  3 12  4  0
  3 14  1  0
  3 23  4  0
  4 13  4  0
  4 21  4  0
  4 24  1  0
  5  8  4  0
  5 23  4  0
  6 18  2  0
  7 15  4  0
  7 16  1  0
  7 27  4  0
  8 18  1  0
 10 18  1  0
 10 20  1  0
 11 15  4  0
 11 26  1  0
 13 22  4  0
 16 19  1  0
 16 20  2  0
 17 19  4  0
 17 21  4  0
 19 22  4  0
 20 28  1  0
 25 27  4  0
M  END
$$$$

 Created by Python create_sdf_string function

 28 30  0  0  0  0  0  0  0  0999 V2000
   11.4592   11.2893   18.7941 C   0  0  0  0  0  0  0  0  0  0  0  0
    3.4202    7.9009   20.3866 C   0  0  0  0  0  0  0  0  0  0  0  0
   13.5280   10.3522   19.3586 C   0  0  0  0  0  0  0  0  0  0  0  0
    9.6923    5.6468   22.7891 C   0  0  0  0  0  0  0  0  0  0  0  0
   11.7756   10.2554   20.8841 N   0  0  0  0  0  0  0  0  0  0  0  0
    8.9876   11.9370   19.8757 O   0  0  0  0  0  0  0  0  0  0  0  0
    6.0167    8.4478   21.1089 C   0  0  0  0  0  0  0  0  0  0  0  0
   11.0002   10.8890   20.0262 C   0  0  0  0  0  0  0  0  0  0  0  0
    2.1721    7.7393   20.0315 O   0  0  0  0  0  0  0  0  0  0  0  0
    9.1107   10.3880   21.3769 N   0  0  0  0  0  0  0  0  0  0  0  0
    3.9102    9.2008   20.3124 C   0  0  0  0  0  0  0  0  0  0  0  0
   12.7292   10.9960   18.4597 C   0  0  0  0  0  0  0  0  0  0  0  0
    9.3798    6.6793   23.6625 C   0  0  0  0  0  0  0  0  0  0  0  0
   14.7425   10.0739   19.0802 O   0  0  0  0  0  0  0  0  0  0  0  0
    5.1894    9.4673   20.7118 C   0  0  0  0  0  0  0  0  0  0  0  0
    7.3773    8.8224   21.4870 C   0  0  0  0  0  0  0  0  0  0  0  0
    8.4391    6.6439   21.0235 C   0  0  0  0  0  0  0  0  0  0  0  0
    9.6494   11.1353   20.4167 C   0  0  0  0  0  0  0  0  0  0  0  0
    8.1431    7.6829   21.9046 C   0  0  0  0  0  0  0  0  0  0  0  0
    7.7796   10.1314   21.5115 N   0  0  0  0  0  0  0  0  0  0  0  0
    9.2768    5.6183   21.4437 C   0  0  0  0  0  0  0  0  0  0  0  0
    8.6315    7.7322   23.1768 C   0  0  0  0  0  0  0  0  0  0  0  0
   13.0537    9.9821   20.5781 C   0  0  0  0  0  0  0  0  0  0  0  0
   10.3850    4.6575   23.2386 O   0  0  0  0  0  0  0  0  0  0  0  0
    4.2069    6.8450   20.7994 C   0  0  0  0  0  0  0  0  0  0  0  0
    3.0726   10.1043   19.8522 O   0  0  0  0  0  0  0  0  0  0  0  0
    5.5057    7.1196   21.1155 C   0  0  0  0  0  0  0  0  0  0  0  0
    7.0367   11.0229   21.9948 O   0  0  0  0  0  0  0  0  0  0  0  0
  1  8  4  0
  1 12  4  0
  2  9  1  0
  2 11  4  0
  2 25  4  0
  3 12  4  0
  3 14  1  0
  3 23  4  0
  4 13  4  0
  4 21  4  0
  4 24  1  0
  5  8  4  0
  5 23  4  0
  6 18  2  0
  7 15  4  0
  7 16  1  0
  7 27  4  0
  8 18  1  0
 10 18  1  0
 10 20  1  0
 11 15  4  0
 11 26  1  0
 13 22  4  0
 16 19  1  0
 16 20  2  0
 17 19  4  0
 17 21  4  0
 19 22  4  0
 20 28  1  0
 25 27  4  0
M  END
$$$$

 Created by Python create_sdf_string function

 28 30  0  0  0  0  0  0  0  0999 V2000
   11.4592   11.2893   18.7941 C   0  0  0  0  0  0  0  0  0  0  0  0
    3.4202    7.9009   20.3866 C   0  0  0  0  0  0  0  0  0  0  0  0
   13.5280   10.3522   19.3586 C   0  0  0  0  0  0  0  0  0  0  0  0
    9.6923    5.6468   22.7891 C   0  0  0  0  0  0  0  0  0  0  0  0
   11.7756   10.2554   20.8841 N   0  0  0  0  0  0  0  0  0  0  0  0
    8.9876   11.9370   19.8757 O   0  0  0  0  0  0  0  0  0  0  0  0
    6.0167    8.4478   21.1089 C   0  0  0  0  0  0  0  0  0  0  0  0
   11.0002   10.8890   20.0262 C   0  0  0  0  0  0  0  0  0  0  0  0
    2.1721    7.7393   20.0315 O   0  0  0  0  0  0  0  0  0  0  0  0
    9.1107   10.3880   21.3769 N   0  0  0  0  0  0  0  0  0  0  0  0
    3.9102    9.2008   20.3124 C   0  0  0  0  0  0  0  0  0  0  0  0
   12.7292   10.9960   18.4597 C   0  0  0  0  0  0  0  0  0  0  0  0
    9.3798    6.6793   23.6625 C   0  0  0  0  0  0  0  0  0  0  0  0
   14.7425   10.0739   19.0802 O   0  0  0  0  0  0  0  0  0  0  0  0
    5.1894    9.4673   20.7118 C   0  0  0  0  0  0  0  0  0  0  0  0
    7.3773    8.8224   21.4870 C   0  0  0  0  0  0  0  0  0  0  0  0
    8.4391    6.6439   21.0235 C   0  0  0  0  0  0  0  0  0  0  0  0
    9.6494   11.1353   20.4167 C   0  0  0  0  0  0  0  0  0  0  0  0
    8.1431    7.6829   21.9046 C   0  0  0  0  0  0  0  0  0  0  0  0
    7.7796   10.1314   21.5115 N   0  0  0  0  0  0  0  0  0  0  0  0
    9.2768    5.6183   21.4437 C   0  0  0  0  0  0  0  0  0  0  0  0
    8.6315    7.7322   23.1768 C   0  0  0  0  0  0  0  0  0  0  0  0
   13.0537    9.9821   20.5781 C   0  0  0  0  0  0  0  0  0  0  0  0
   10.3850    4.6575   23.2386 O   0  0  0  0  0  0  0  0  0  0  0  0
    4.2069    6.8450   20.7994 C   0  0  0  0  0  0  0  0  0  0  0  0
    3.0726   10.1043   19.8522 O   0  0  0  0  0  0  0  0  0  0  0  0
    5.5057    7.1196   21.1155 C   0  0  0  0  0  0  0  0  0  0  0  0
    7.0367   11.0229   21.9948 O   0  0  0  0  0  0  0  0  0  0  0  0
  1  8  4  0
  1 12  4  0
  2  9  1  0
  2 11  4  0
  2 25  4  0
  3 12  4  0
  3 14  1  0
  3 23  4  0
  4 13  4  0
  4 21  4  0
  4 24  1  0
  5  8  4  0
  5 23  4  0
  6 18  2  0
  7 15  4  0
  7 16  1  0
  7 27  4  0
  8 18  1  0
 10 18  1  0
 10 20  1  0
 11 15  4  0
 11 26  1  0
 13 22  4  0
 16 19  1  0
 16 20  2  0
 17 19  4  0
 17 21  4  0
 19 22  4  0
 20 28  1  0
 25 27  4  0
M  END
$$$$

 Created by Python create_sdf_string function

 28 30  0  0  0  0  0  0  0  0999 V2000
   11.4592   11.2893   18.7941 C   0  0  0  0  0  0  0  0  0  0  0  0
    3.4202    7.9009   20.3866 C   0  0  0  0  0  0  0  0  0  0  0  0
   13.5280   10.3522   19.3586 C   0  0  0  0  0  0  0  0  0  0  0  0
    9.6923    5.6468   22.7891 C   0  0  0  0  0  0  0  0  0  0  0  0
   11.7756   10.2554   20.8841 N   0  0  0  0  0  0  0  0  0  0  0  0
    8.9876   11.9370   19.8757 O   0  0  0  0  0  0  0  0  0  0  0  0
    6.0167    8.4478   21.1089 C   0  0  0  0  0  0  0  0  0  0  0  0
   11.0002   10.8890   20.0262 C   0  0  0  0  0  0  0  0  0  0  0  0
    2.1721    7.7393   20.0315 O   0  0  0  0  0  0  0  0  0  0  0  0
    9.1107   10.3880   21.3769 N   0  0  0  0  0  0  0  0  0  0  0  0
    3.9102    9.2008   20.3124 C   0  0  0  0  0  0  0  0  0  0  0  0
   12.7292   10.9960   18.4597 C   0  0  0  0  0  0  0  0  0  0  0  0
    9.3798    6.6793   23.6625 C   0  0  0  0  0  0  0  0  0  0  0  0
   14.7425   10.0739   19.0802 O   0  0  0  0  0  0  0  0  0  0  0  0
    5.1894    9.4673   20.7118 C   0  0  0  0  0  0  0  0  0  0  0  0
    7.3773    8.8224   21.4870 C   0  0  0  0  0  0  0  0  0  0  0  0
    8.4391    6.6439   21.0235 C   0  0  0  0  0  0  0  0  0  0  0  0
    9.6494   11.1353   20.4167 C   0  0  0  0  0  0  0  0  0  0  0  0
    8.1431    7.6829   21.9046 C   0  0  0  0  0  0  0  0  0  0  0  0
    7.7796   10.1314   21.5115 N   0  0  0  0  0  0  0  0  0  0  0  0
    9.2768    5.6183   21.4437 C   0  0  0  0  0  0  0  0  0  0  0  0
    8.6315    7.7322   23.1768 C   0  0  0  0  0  0  0  0  0  0  0  0
   13.0537    9.9821   20.5781 C   0  0  0  0  0  0  0  0  0  0  0  0
   10.3850    4.6575   23.2386 O   0  0  0  0  0  0  0  0  0  0  0  0
    4.2069    6.8450   20.7994 C   0  0  0  0  0  0  0  0  0  0  0  0
    3.0726   10.1043   19.8522 O   0  0  0  0  0  0  0  0  0  0  0  0
    5.5057    7.1196   21.1155 C   0  0  0  0  0  0  0  0  0  0  0  0
    7.0367   11.0229   21.9948 O   0  0  0  0  0  0  0  0  0  0  0  0
  1  8  4  0
  1 12  4  0
  2  9  1  0
  2 11  4  0
  2 25  4  0
  3 12  4  0
  3 14  1  0
  3 23  4  0
  4 13  4  0
  4 21  4  0
  4 24  1  0
  5  8  4  0
  5 23  4  0
  6 18  2  0
  7 15  4  0
  7 16  1  0
  7 27  4  0
  8 18  1  0
 10 18  1  0
 10 20  1  0
 11 15  4  0
 11 26  1  0
 13 22  4  0
 16 19  1  0
 16 20  2  0
 17 19  4  0
 17 21  4  0
 19 22  4  0
 20 28  1  0
 25 27  4  0
M  END
$$$$

 Created by Python create_sdf_string function

 28 30  0  0  0  0  0  0  0  0999 V2000
   11.4592   11.2893   18.7941 C   0  0  0  0  0  0  0  0  0  0  0  0
    3.4202    7.9009   20.3866 C   0  0  0  0  0  0  0  0  0  0  0  0
   13.5280   10.3522   19.3586 C   0  0  0  0  0  0  0  0  0  0  0  0
    9.6923    5.6468   22.7891 C   0  0  0  0  0  0  0  0  0  0  0  0
   11.7756   10.2554   20.8841 N   0  0  0  0  0  0  0  0  0  0  0  0
    8.9876   11.9370   19.8757 O   0  0  0  0  0  0  0  0  0  0  0  0
    6.0167    8.4478   21.1089 C   0  0  0  0  0  0  0  0  0  0  0  0
   11.0002   10.8890   20.0262 C   0  0  0  0  0  0  0  0  0  0  0  0
    2.1721    7.7393   20.0315 O   0  0  0  0  0  0  0  0  0  0  0  0
    9.1107   10.3880   21.3769 N   0  0  0  0  0  0  0  0  0  0  0  0
    3.9102    9.2008   20.3124 C   0  0  0  0  0  0  0  0  0  0  0  0
   12.7292   10.9960   18.4597 C   0  0  0  0  0  0  0  0  0  0  0  0
    9.3798    6.6793   23.6625 C   0  0  0  0  0  0  0  0  0  0  0  0
   14.7425   10.0739   19.0802 O   0  0  0  0  0  0  0  0  0  0  0  0
    5.1894    9.4673   20.7118 C   0  0  0  0  0  0  0  0  0  0  0  0
    7.3773    8.8224   21.4870 C   0  0  0  0  0  0  0  0  0  0  0  0
    8.4391    6.6439   21.0235 C   0  0  0  0  0  0  0  0  0  0  0  0
    9.6494   11.1353   20.4167 C   0  0  0  0  0  0  0  0  0  0  0  0
    8.1431    7.6829   21.9046 C   0  0  0  0  0  0  0  0  0  0  0  0
    7.7796   10.1314   21.5115 N   0  0  0  0  0  0  0  0  0  0  0  0
    9.2768    5.6183   21.4437 C   0  0  0  0  0  0  0  0  0  0  0  0
    8.6315    7.7322   23.1768 C   0  0  0  0  0  0  0  0  0  0  0  0
   13.0537    9.9821   20.5781 C   0  0  0  0  0  0  0  0  0  0  0  0
   10.3850    4.6575   23.2386 O   0  0  0  0  0  0  0  0  0  0  0  0
    4.2069    6.8450   20.7994 C   0  0  0  0  0  0  0  0  0  0  0  0
    3.0726   10.1043   19.8522 O   0  0  0  0  0  0  0  0  0  0  0  0
    5.5057    7.1196   21.1155 C   0  0  0  0  0  0  0  0  0  0  0  0
    7.0367   11.0229   21.9948 O   0  0  0  0  0  0  0  0  0  0  0  0
  1  8  4  0
  1 12  4  0
  2  9  1  0
  2 11  4  0
  2 25  4  0
  3 12  4  0
  3 14  1  0
  3 23  4  0
  4 13  4  0
  4 21  4  0
  4 24  1  0
  5  8  4  0
  5 23  4  0
  6 18  2  0
  7 15  4  0
  7 16  1  0
  7 27  4  0
  8 18  1  0
 10 18  1  0
 10 20  1  0
 11 15  4  0
 11 26  1  0
 13 22  4  0
 16 19  1  0
 16 20  2  0
 17 19  4  0
 17 21  4  0
 19 22  4  0
 20 28  1  0
 25 27  4  0
M  END
$$$$

 Created by Python create_sdf_string function

 28 30  0  0  0  0  0  0  0  0999 V2000
   11.4592   11.2893   18.7941 C   0  0  0  0  0  0  0  0  0  0  0  0
    3.4202    7.9009   20.3866 C   0  0  0  0  0  0  0  0  0  0  0  0
   13.5280   10.3522   19.3586 C   0  0  0  0  0  0  0  0  0  0  0  0
    9.6923    5.6468   22.7891 C   0  0  0  0  0  0  0  0  0  0  0  0
   11.7756   10.2554   20.8841 N   0  0  0  0  0  0  0  0  0  0  0  0
    8.9876   11.9370   19.8757 O   0  0  0  0  0  0  0  0  0  0  0  0
    6.0167    8.4478   21.1089 C   0  0  0  0  0  0  0  0  0  0  0  0
   11.0002   10.8890   20.0262 C   0  0  0  0  0  0  0  0  0  0  0  0
    2.1721    7.7393   20.0315 O   0  0  0  0  0  0  0  0  0  0  0  0
    9.1107   10.3880   21.3769 N   0  0  0  0  0  0  0  0  0  0  0  0
    3.9102    9.2008   20.3124 C   0  0  0  0  0  0  0  0  0  0  0  0
   12.7292   10.9960   18.4597 C   0  0  0  0  0  0  0  0  0  0  0  0
    9.3798    6.6793   23.6625 C   0  0  0  0  0  0  0  0  0  0  0  0
   14.7425   10.0739   19.0802 O   0  0  0  0  0  0  0  0  0  0  0  0
    5.1894    9.4673   20.7118 C   0  0  0  0  0  0  0  0  0  0  0  0
    7.3773    8.8224   21.4870 C   0  0  0  0  0  0  0  0  0  0  0  0
    8.4391    6.6439   21.0235 C   0  0  0  0  0  0  0  0  0  0  0  0
    9.6494   11.1353   20.4167 C   0  0  0  0  0  0  0  0  0  0  0  0
    8.1431    7.6829   21.9046 C   0  0  0  0  0  0  0  0  0  0  0  0
    7.7796   10.1314   21.5115 N   0  0  0  0  0  0  0  0  0  0  0  0
    9.2768    5.6183   21.4437 C   0  0  0  0  0  0  0  0  0  0  0  0
    8.6315    7.7322   23.1768 C   0  0  0  0  0  0  0  0  0  0  0  0
   13.0537    9.9821   20.5781 C   0  0  0  0  0  0  0  0  0  0  0  0
   10.3850    4.6575   23.2386 O   0  0  0  0  0  0  0  0  0  0  0  0
    4.2069    6.8450   20.7994 C   0  0  0  0  0  0  0  0  0  0  0  0
    3.0726   10.1043   19.8522 O   0  0  0  0  0  0  0  0  0  0  0  0
    5.5057    7.1196   21.1155 C   0  0  0  0  0  0  0  0  0  0  0  0
    7.0367   11.0229   21.9948 O   0  0  0  0  0  0  0  0  0  0  0  0
  1  8  4  0
  1 12  4  0
  2  9  1  0
  2 11  4  0
  2 25  4  0
  3 12  4  0
  3 14  1  0
  3 23  4  0
  4 13  4  0
  4 21  4  0
  4 24  1  0
  5  8  4  0
  5 23  4  0
  6 18  2  0
  7 15  4  0
  7 16  1  0
  7 27  4  0
  8 18  1  0
 10 18  1  0
 10 20  1  0
 11 15  4  0
 11 26  1  0
 13 22  4  0
 16 19  1  0
 16 20  2  0
 17 19  4  0
 17 21  4  0
 19 22  4  0
 20 28  1  0
 25 27  4  0
M  END
$$$$

 Created by Python create_sdf_string function

 28 30  0  0  0  0  0  0  0  0999 V2000
   11.4592   11.2893   18.7941 C   0  0  0  0  0  0  0  0  0  0  0  0
    3.4202    7.9009   20.3866 C   0  0  0  0  0  0  0  0  0  0  0  0
   13.5280   10.3522   19.3586 C   0  0  0  0  0  0  0  0  0  0  0  0
    9.6923    5.6468   22.7891 C   0  0  0  0  0  0  0  0  0  0  0  0
   11.7756   10.2554   20.8841 N   0  0  0  0  0  0  0  0  0  0  0  0
    8.9876   11.9370   19.8757 O   0  0  0  0  0  0  0  0  0  0  0  0
    6.0167    8.4478   21.1089 C   0  0  0  0  0  0  0  0  0  0  0  0
   11.0002   10.8890   20.0262 C   0  0  0  0  0  0  0  0  0  0  0  0
    2.1721    7.7393   20.0315 O   0  0  0  0  0  0  0  0  0  0  0  0
    9.1107   10.3880   21.3769 N   0  0  0  0  0  0  0  0  0  0  0  0
    3.9102    9.2008   20.3124 C   0  0  0  0  0  0  0  0  0  0  0  0
   12.7292   10.9960   18.4597 C   0  0  0  0  0  0  0  0  0  0  0  0
    9.3798    6.6793   23.6625 C   0  0  0  0  0  0  0  0  0  0  0  0
   14.7425   10.0739   19.0802 O   0  0  0  0  0  0  0  0  0  0  0  0
    5.1894    9.4673   20.7118 C   0  0  0  0  0  0  0  0  0  0  0  0
    7.3773    8.8224   21.4870 C   0  0  0  0  0  0  0  0  0  0  0  0
    8.4391    6.6439   21.0235 C   0  0  0  0  0  0  0  0  0  0  0  0
    9.6494   11.1353   20.4167 C   0  0  0  0  0  0  0  0  0  0  0  0
    8.1431    7.6829   21.9046 C   0  0  0  0  0  0  0  0  0  0  0  0
    7.7796   10.1314   21.5115 N   0  0  0  0  0  0  0  0  0  0  0  0
    9.2768    5.6183   21.4437 C   0  0  0  0  0  0  0  0  0  0  0  0
    8.6315    7.7322   23.1768 C   0  0  0  0  0  0  0  0  0  0  0  0
   13.0537    9.9821   20.5781 C   0  0  0  0  0  0  0  0  0  0  0  0
   10.3850    4.6575   23.2386 O   0  0  0  0  0  0  0  0  0  0  0  0
    4.2069    6.8450   20.7994 C   0  0  0  0  0  0  0  0  0  0  0  0
    3.0726   10.1043   19.8522 O   0  0  0  0  0  0  0  0  0  0  0  0
    5.5057    7.1196   21.1155 C   0  0  0  0  0  0  0  0  0  0  0  0
    7.0367   11.0229   21.9948 O   0  0  0  0  0  0  0  0  0  0  0  0
  1  8  4  0
  1 12  4  0
  2  9  1  0
  2 11  4  0
  2 25  4  0
  3 12  4  0
  3 14  1  0
  3 23  4  0
  4 13  4  0
  4 21  4  0
  4 24  1  0
  5  8  4  0
  5 23  4  0
  6 18  2  0
  7 15  4  0
  7 16  1  0
  7 27  4  0
  8 18  1  0
 10 18  1  0
 10 20  1  0
 11 15  4  0
 11 26  1  0
 13 22  4  0
 16 19  1  0
 16 20  2  0
 17 19  4  0
 17 21  4  0
 19 22  4  0
 20 28  1  0
 25 27  4  0
M  END
$$$$

 Created by Python create_sdf_string function

 28 30  0  0  0  0  0  0  0  0999 V2000
   11.4592   11.2893   18.7941 C   0  0  0  0  0  0  0  0  0  0  0  0
    3.4202    7.9009   20.3866 C   0  0  0  0  0  0  0  0  0  0  0  0
   13.5280   10.3522   19.3586 C   0  0  0  0  0  0  0  0  0  0  0  0
    9.6923    5.6468   22.7891 C   0  0  0  0  0  0  0  0  0  0  0  0
   11.7756   10.2554   20.8841 N   0  0  0  0  0  0  0  0  0  0  0  0
    8.9876   11.9370   19.8757 O   0  0  0  0  0  0  0  0  0  0  0  0
    6.0167    8.4478   21.1089 C   0  0  0  0  0  0  0  0  0  0  0  0
   11.0002   10.8890   20.0262 C   0  0  0  0  0  0  0  0  0  0  0  0
    2.1721    7.7393   20.0315 O   0  0  0  0  0  0  0  0  0  0  0  0
    9.1107   10.3880   21.3769 N   0  0  0  0  0  0  0  0  0  0  0  0
    3.9102    9.2008   20.3124 C   0  0  0  0  0  0  0  0  0  0  0  0
   12.7292   10.9960   18.4597 C   0  0  0  0  0  0  0  0  0  0  0  0
    9.3798    6.6793   23.6625 C   0  0  0  0  0  0  0  0  0  0  0  0
   14.7425   10.0739   19.0802 O   0  0  0  0  0  0  0  0  0  0  0  0
    5.1894    9.4673   20.7118 C   0  0  0  0  0  0  0  0  0  0  0  0
    7.3773    8.8224   21.4870 C   0  0  0  0  0  0  0  0  0  0  0  0
    8.4391    6.6439   21.0235 C   0  0  0  0  0  0  0  0  0  0  0  0
    9.6494   11.1353   20.4167 C   0  0  0  0  0  0  0  0  0  0  0  0
    8.1431    7.6829   21.9046 C   0  0  0  0  0  0  0  0  0  0  0  0
    7.7796   10.1314   21.5115 N   0  0  0  0  0  0  0  0  0  0  0  0
    9.2768    5.6183   21.4437 C   0  0  0  0  0  0  0  0  0  0  0  0
    8.6315    7.7322   23.1768 C   0  0  0  0  0  0  0  0  0  0  0  0
   13.0537    9.9821   20.5781 C   0  0  0  0  0  0  0  0  0  0  0  0
   10.3850    4.6575   23.2386 O   0  0  0  0  0  0  0  0  0  0  0  0
    4.2069    6.8450   20.7994 C   0  0  0  0  0  0  0  0  0  0  0  0
    3.0726   10.1043   19.8522 O   0  0  0  0  0  0  0  0  0  0  0  0
    5.5057    7.1196   21.1155 C   0  0  0  0  0  0  0  0  0  0  0  0
    7.0367   11.0229   21.9948 O   0  0  0  0  0  0  0  0  0  0  0  0
  1  8  4  0
  1 12  4  0
  2  9  1  0
  2 11  4  0
  2 25  4  0
  3 12  4  0
  3 14  1  0
  3 23  4  0
  4 13  4  0
  4 21  4  0
  4 24  1  0
  5  8  4  0
  5 23  4  0
  6 18  2  0
  7 15  4  0
  7 16  1  0
  7 27  4  0
  8 18  1  0
 10 18  1  0
 10 20  1  0
 11 15  4  0
 11 26  1  0
 13 22  4  0
 16 19  1  0
 16 20  2  0
 17 19  4  0
 17 21  4  0
 19 22  4  0
 20 28  1  0
 25 27  4  0
M  END
$$$$

 Created by Python create_sdf_string function

 28 30  0  0  0  0  0  0  0  0999 V2000
   11.4592   11.2893   18.7941 C   0  0  0  0  0  0  0  0  0  0  0  0
    3.4202    7.9009   20.3866 C   0  0  0  0  0  0  0  0  0  0  0  0
   13.5280   10.3522   19.3586 C   0  0  0  0  0  0  0  0  0  0  0  0
    9.6923    5.6468   22.7891 C   0  0  0  0  0  0  0  0  0  0  0  0
   11.7756   10.2554   20.8841 N   0  0  0  0  0  0  0  0  0  0  0  0
    8.9876   11.9370   19.8757 O   0  0  0  0  0  0  0  0  0  0  0  0
    6.0167    8.4478   21.1089 C   0  0  0  0  0  0  0  0  0  0  0  0
   11.0002   10.8890   20.0262 C   0  0  0  0  0  0  0  0  0  0  0  0
    2.1721    7.7393   20.0315 O   0  0  0  0  0  0  0  0  0  0  0  0
    9.1107   10.3880   21.3769 N   0  0  0  0  0  0  0  0  0  0  0  0
    3.9102    9.2008   20.3124 C   0  0  0  0  0  0  0  0  0  0  0  0
   12.7292   10.9960   18.4597 C   0  0  0  0  0  0  0  0  0  0  0  0
    9.3798    6.6793   23.6625 C   0  0  0  0  0  0  0  0  0  0  0  0
   14.7425   10.0739   19.0802 O   0  0  0  0  0  0  0  0  0  0  0  0
    5.1894    9.4673   20.7118 C   0  0  0  0  0  0  0  0  0  0  0  0
    7.3773    8.8224   21.4870 C   0  0  0  0  0  0  0  0  0  0  0  0
    8.4391    6.6439   21.0235 C   0  0  0  0  0  0  0  0  0  0  0  0
    9.6494   11.1353   20.4167 C   0  0  0  0  0  0  0  0  0  0  0  0
    8.1431    7.6829   21.9046 C   0  0  0  0  0  0  0  0  0  0  0  0
    7.7796   10.1314   21.5115 N   0  0  0  0  0  0  0  0  0  0  0  0
    9.2768    5.6183   21.4437 C   0  0  0  0  0  0  0  0  0  0  0  0
    8.6315    7.7322   23.1768 C   0  0  0  0  0  0  0  0  0  0  0  0
   13.0537    9.9821   20.5781 C   0  0  0  0  0  0  0  0  0  0  0  0
   10.3850    4.6575   23.2386 O   0  0  0  0  0  0  0  0  0  0  0  0
    4.2069    6.8450   20.7994 C   0  0  0  0  0  0  0  0  0  0  0  0
    3.0726   10.1043   19.8522 O   0  0  0  0  0  0  0  0  0  0  0  0
    5.5057    7.1196   21.1155 C   0  0  0  0  0  0  0  0  0  0  0  0
    7.0367   11.0229   21.9948 O   0  0  0  0  0  0  0  0  0  0  0  0
  1  8  4  0
  1 12  4  0
  2  9  1  0
  2 11  4  0
  2 25  4  0
  3 12  4  0
  3 14  1  0
  3 23  4  0
  4 13  4  0
  4 21  4  0
  4 24  1  0
  5  8  4  0
  5 23  4  0
  6 18  2  0
  7 15  4  0
  7 16  1  0
  7 27  4  0
  8 18  1  0
 10 18  1  0
 10 20  1  0
 11 15  4  0
 11 26  1  0
 13 22  4  0
 16 19  1  0
 16 20  2  0
 17 19  4  0
 17 21  4  0
 19 22  4  0
 20 28  1  0
 25 27  4  0
M  END
$$$$

 Created by Python create_sdf_string function

 28 30  0  0  0  0  0  0  0  0999 V2000
   11.4592   11.2893   18.7941 C   0  0  0  0  0  0  0  0  0  0  0  0
    3.4202    7.9009   20.3866 C   0  0  0  0  0  0  0  0  0  0  0  0
   13.5280   10.3522   19.3586 C   0  0  0  0  0  0  0  0  0  0  0  0
    9.6923    5.6468   22.7891 C   0  0  0  0  0  0  0  0  0  0  0  0
   11.7756   10.2554   20.8841 N   0  0  0  0  0  0  0  0  0  0  0  0
    8.9876   11.9370   19.8757 O   0  0  0  0  0  0  0  0  0  0  0  0
    6.0167    8.4478   21.1089 C   0  0  0  0  0  0  0  0  0  0  0  0
   11.0002   10.8890   20.0262 C   0  0  0  0  0  0  0  0  0  0  0  0
    2.1721    7.7393   20.0315 O   0  0  0  0  0  0  0  0  0  0  0  0
    9.1107   10.3880   21.3769 N   0  0  0  0  0  0  0  0  0  0  0  0
    3.9102    9.2008   20.3124 C   0  0  0  0  0  0  0  0  0  0  0  0
   12.7292   10.9960   18.4597 C   0  0  0  0  0  0  0  0  0  0  0  0
    9.3798    6.6793   23.6625 C   0  0  0  0  0  0  0  0  0  0  0  0
   14.7425   10.0739   19.0802 O   0  0  0  0  0  0  0  0  0  0  0  0
    5.1894    9.4673   20.7118 C   0  0  0  0  0  0  0  0  0  0  0  0
    7.3773    8.8224   21.4870 C   0  0  0  0  0  0  0  0  0  0  0  0
    8.4391    6.6439   21.0235 C   0  0  0  0  0  0  0  0  0  0  0  0
    9.6494   11.1353   20.4167 C   0  0  0  0  0  0  0  0  0  0  0  0
    8.1431    7.6829   21.9046 C   0  0  0  0  0  0  0  0  0  0  0  0
    7.7796   10.1314   21.5115 N   0  0  0  0  0  0  0  0  0  0  0  0
    9.2768    5.6183   21.4437 C   0  0  0  0  0  0  0  0  0  0  0  0
    8.6315    7.7322   23.1768 C   0  0  0  0  0  0  0  0  0  0  0  0
   13.0537    9.9821   20.5781 C   0  0  0  0  0  0  0  0  0  0  0  0
   10.3850    4.6575   23.2386 O   0  0  0  0  0  0  0  0  0  0  0  0
    4.2069    6.8450   20.7994 C   0  0  0  0  0  0  0  0  0  0  0  0
    3.0726   10.1043   19.8522 O   0  0  0  0  0  0  0  0  0  0  0  0
    5.5057    7.1196   21.1155 C   0  0  0  0  0  0  0  0  0  0  0  0
    7.0367   11.0229   21.9948 O   0  0  0  0  0  0  0  0  0  0  0  0
  1  8  4  0
  1 12  4  0
  2  9  1  0
  2 11  4  0
  2 25  4  0
  3 12  4  0
  3 14  1  0
  3 23  4  0
  4 13  4  0
  4 21  4  0
  4 24  1  0
  5  8  4  0
  5 23  4  0
  6 18  2  0
  7 15  4  0
  7 16  1  0
  7 27  4  0
  8 18  1  0
 10 18  1  0
 10 20  1  0
 11 15  4  0
 11 26  1  0
 13 22  4  0
 16 19  1  0
 16 20  2  0
 17 19  4  0
 17 21  4  0
 19 22  4  0
 20 28  1  0
 25 27  4  0
M  END
$$$$

 Created by Python create_sdf_string function

 28 30  0  0  0  0  0  0  0  0999 V2000
   11.4592   11.2893   18.7941 C   0  0  0  0  0  0  0  0  0  0  0  0
    3.4202    7.9009   20.3866 C   0  0  0  0  0  0  0  0  0  0  0  0
   13.5280   10.3522   19.3586 C   0  0  0  0  0  0  0  0  0  0  0  0
    9.6923    5.6468   22.7891 C   0  0  0  0  0  0  0  0  0  0  0  0
   11.7756   10.2554   20.8841 N   0  0  0  0  0  0  0  0  0  0  0  0
    8.9876   11.9370   19.8757 O   0  0  0  0  0  0  0  0  0  0  0  0
    6.0167    8.4478   21.1089 C   0  0  0  0  0  0  0  0  0  0  0  0
   11.0002   10.8890   20.0262 C   0  0  0  0  0  0  0  0  0  0  0  0
    2.1721    7.7393   20.0315 O   0  0  0  0  0  0  0  0  0  0  0  0
    9.1107   10.3880   21.3769 N   0  0  0  0  0  0  0  0  0  0  0  0
    3.9102    9.2008   20.3124 C   0  0  0  0  0  0  0  0  0  0  0  0
   12.7292   10.9960   18.4597 C   0  0  0  0  0  0  0  0  0  0  0  0
    9.3798    6.6793   23.6625 C   0  0  0  0  0  0  0  0  0  0  0  0
   14.7425   10.0739   19.0802 O   0  0  0  0  0  0  0  0  0  0  0  0
    5.1894    9.4673   20.7118 C   0  0  0  0  0  0  0  0  0  0  0  0
    7.3773    8.8224   21.4870 C   0  0  0  0  0  0  0  0  0  0  0  0
    8.4391    6.6439   21.0235 C   0  0  0  0  0  0  0  0  0  0  0  0
    9.6494   11.1353   20.4167 C   0  0  0  0  0  0  0  0  0  0  0  0
    8.1431    7.6829   21.9046 C   0  0  0  0  0  0  0  0  0  0  0  0
    7.7796   10.1314   21.5115 N   0  0  0  0  0  0  0  0  0  0  0  0
    9.2768    5.6183   21.4437 C   0  0  0  0  0  0  0  0  0  0  0  0
    8.6315    7.7322   23.1768 C   0  0  0  0  0  0  0  0  0  0  0  0
   13.0537    9.9821   20.5781 C   0  0  0  0  0  0  0  0  0  0  0  0
   10.3850    4.6575   23.2386 O   0  0  0  0  0  0  0  0  0  0  0  0
    4.2069    6.8450   20.7994 C   0  0  0  0  0  0  0  0  0  0  0  0
    3.0726   10.1043   19.8522 O   0  0  0  0  0  0  0  0  0  0  0  0
    5.5057    7.1196   21.1155 C   0  0  0  0  0  0  0  0  0  0  0  0
    7.0367   11.0229   21.9948 O   0  0  0  0  0  0  0  0  0  0  0  0
  1  8  4  0
  1 12  4  0
  2  9  1  0
  2 11  4  0
  2 25  4  0
  3 12  4  0
  3 14  1  0
  3 23  4  0
  4 13  4  0
  4 21  4  0
  4 24  1  0
  5  8  4  0
  5 23  4  0
  6 18  2  0
  7 15  4  0
  7 16  1  0
  7 27  4  0
  8 18  1  0
 10 18  1  0
 10 20  1  0
 11 15  4  0
 11 26  1  0
 13 22  4  0
 16 19  1  0
 16 20  2  0
 17 19  4  0
 17 21  4  0
 19 22  4  0
 20 28  1  0
 25 27  4  0
M  END
$$$$

 Created by Python create_sdf_string function

 28 30  0  0  0  0  0  0  0  0999 V2000
   11.4592   11.2893   18.7941 C   0  0  0  0  0  0  0  0  0  0  0  0
    3.4202    7.9009   20.3866 C   0  0  0  0  0  0  0  0  0  0  0  0
   13.5280   10.3522   19.3586 C   0  0  0  0  0  0  0  0  0  0  0  0
    9.6923    5.6468   22.7891 C   0  0  0  0  0  0  0  0  0  0  0  0
   11.7756   10.2554   20.8841 N   0  0  0  0  0  0  0  0  0  0  0  0
    8.9876   11.9370   19.8757 O   0  0  0  0  0  0  0  0  0  0  0  0
    6.0167    8.4478   21.1089 C   0  0  0  0  0  0  0  0  0  0  0  0
   11.0002   10.8890   20.0262 C   0  0  0  0  0  0  0  0  0  0  0  0
    2.1721    7.7393   20.0315 O   0  0  0  0  0  0  0  0  0  0  0  0
    9.1107   10.3880   21.3769 N   0  0  0  0  0  0  0  0  0  0  0  0
    3.9102    9.2008   20.3124 C   0  0  0  0  0  0  0  0  0  0  0  0
   12.7292   10.9960   18.4597 C   0  0  0  0  0  0  0  0  0  0  0  0
    9.3798    6.6793   23.6625 C   0  0  0  0  0  0  0  0  0  0  0  0
   14.7425   10.0739   19.0802 O   0  0  0  0  0  0  0  0  0  0  0  0
    5.1894    9.4673   20.7118 C   0  0  0  0  0  0  0  0  0  0  0  0
    7.3773    8.8224   21.4870 C   0  0  0  0  0  0  0  0  0  0  0  0
    8.4391    6.6439   21.0235 C   0  0  0  0  0  0  0  0  0  0  0  0
    9.6494   11.1353   20.4167 C   0  0  0  0  0  0  0  0  0  0  0  0
    8.1431    7.6829   21.9046 C   0  0  0  0  0  0  0  0  0  0  0  0
    7.7796   10.1314   21.5115 N   0  0  0  0  0  0  0  0  0  0  0  0
    9.2768    5.6183   21.4437 C   0  0  0  0  0  0  0  0  0  0  0  0
    8.6315    7.7322   23.1768 C   0  0  0  0  0  0  0  0  0  0  0  0
   13.0537    9.9821   20.5781 C   0  0  0  0  0  0  0  0  0  0  0  0
   10.3850    4.6575   23.2386 O   0  0  0  0  0  0  0  0  0  0  0  0
    4.2069    6.8450   20.7994 C   0  0  0  0  0  0  0  0  0  0  0  0
    3.0726   10.1043   19.8522 O   0  0  0  0  0  0  0  0  0  0  0  0
    5.5057    7.1196   21.1155 C   0  0  0  0  0  0  0  0  0  0  0  0
    7.0367   11.0229   21.9948 O   0  0  0  0  0  0  0  0  0  0  0  0
  1  8  4  0
  1 12  4  0
  2  9  1  0
  2 11  4  0
  2 25  4  0
  3 12  4  0
  3 14  1  0
  3 23  4  0
  4 13  4  0
  4 21  4  0
  4 24  1  0
  5  8  4  0
  5 23  4  0
  6 18  2  0
  7 15  4  0
  7 16  1  0
  7 27  4  0
  8 18  1  0
 10 18  1  0
 10 20  1  0
 11 15  4  0
 11 26  1  0
 13 22  4  0
 16 19  1  0
 16 20  2  0
 17 19  4  0
 17 21  4  0
 19 22  4  0
 20 28  1  0
 25 27  4  0
M  END
$$$$

 Created by Python create_sdf_string function

 28 30  0  0  0  0  0  0  0  0999 V2000
   11.4592   11.2893   18.7941 C   0  0  0  0  0  0  0  0  0  0  0  0
    3.4202    7.9009   20.3866 C   0  0  0  0  0  0  0  0  0  0  0  0
   13.5280   10.3522   19.3586 C   0  0  0  0  0  0  0  0  0  0  0  0
    9.6923    5.6468   22.7891 C   0  0  0  0  0  0  0  0  0  0  0  0
   11.7756   10.2554   20.8841 N   0  0  0  0  0  0  0  0  0  0  0  0
    8.9876   11.9370   19.8757 O   0  0  0  0  0  0  0  0  0  0  0  0
    6.0167    8.4478   21.1089 C   0  0  0  0  0  0  0  0  0  0  0  0
   11.0002   10.8890   20.0262 C   0  0  0  0  0  0  0  0  0  0  0  0
    2.1721    7.7393   20.0315 O   0  0  0  0  0  0  0  0  0  0  0  0
    9.1107   10.3880   21.3769 N   0  0  0  0  0  0  0  0  0  0  0  0
    3.9102    9.2008   20.3124 C   0  0  0  0  0  0  0  0  0  0  0  0
   12.7292   10.9960   18.4597 C   0  0  0  0  0  0  0  0  0  0  0  0
    9.3798    6.6793   23.6625 C   0  0  0  0  0  0  0  0  0  0  0  0
   14.7425   10.0739   19.0802 O   0  0  0  0  0  0  0  0  0  0  0  0
    5.1894    9.4673   20.7118 C   0  0  0  0  0  0  0  0  0  0  0  0
    7.3773    8.8224   21.4870 C   0  0  0  0  0  0  0  0  0  0  0  0
    8.4391    6.6439   21.0235 C   0  0  0  0  0  0  0  0  0  0  0  0
    9.6494   11.1353   20.4167 C   0  0  0  0  0  0  0  0  0  0  0  0
    8.1431    7.6829   21.9046 C   0  0  0  0  0  0  0  0  0  0  0  0
    7.7796   10.1314   21.5115 N   0  0  0  0  0  0  0  0  0  0  0  0
    9.2768    5.6183   21.4437 C   0  0  0  0  0  0  0  0  0  0  0  0
    8.6315    7.7322   23.1768 C   0  0  0  0  0  0  0  0  0  0  0  0
   13.0537    9.9821   20.5781 C   0  0  0  0  0  0  0  0  0  0  0  0
   10.3850    4.6575   23.2386 O   0  0  0  0  0  0  0  0  0  0  0  0
    4.2069    6.8450   20.7994 C   0  0  0  0  0  0  0  0  0  0  0  0
    3.0726   10.1043   19.8522 O   0  0  0  0  0  0  0  0  0  0  0  0
    5.5057    7.1196   21.1155 C   0  0  0  0  0  0  0  0  0  0  0  0
    7.0367   11.0229   21.9948 O   0  0  0  0  0  0  0  0  0  0  0  0
  1  8  4  0
  1 12  4  0
  2  9  1  0
  2 11  4  0
  2 25  4  0
  3 12  4  0
  3 14  1  0
  3 23  4  0
  4 13  4  0
  4 21  4  0
  4 24  1  0
  5  8  4  0
  5 23  4  0
  6 18  2  0
  7 15  4  0
  7 16  1  0
  7 27  4  0
  8 18  1  0
 10 18  1  0
 10 20  1  0
 11 15  4  0
 11 26  1  0
 13 22  4  0
 16 19  1  0
 16 20  2  0
 17 19  4  0
 17 21  4  0
 19 22  4  0
 20 28  1  0
 25 27  4  0
M  END
$$$$

 Created by Python create_sdf_string function

 28 30  0  0  0  0  0  0  0  0999 V2000
   11.4592   11.2893   18.7941 C   0  0  0  0  0  0  0  0  0  0  0  0
    3.4202    7.9009   20.3866 C   0  0  0  0  0  0  0  0  0  0  0  0
   13.5280   10.3522   19.3586 C   0  0  0  0  0  0  0  0  0  0  0  0
    9.6923    5.6468   22.7891 C   0  0  0  0  0  0  0  0  0  0  0  0
   11.7756   10.2554   20.8841 N   0  0  0  0  0  0  0  0  0  0  0  0
    8.9876   11.9370   19.8757 O   0  0  0  0  0  0  0  0  0  0  0  0
    6.0167    8.4478   21.1089 C   0  0  0  0  0  0  0  0  0  0  0  0
   11.0002   10.8890   20.0262 C   0  0  0  0  0  0  0  0  0  0  0  0
    2.1721    7.7393   20.0315 O   0  0  0  0  0  0  0  0  0  0  0  0
    9.1107   10.3880   21.3769 N   0  0  0  0  0  0  0  0  0  0  0  0
    3.9102    9.2008   20.3124 C   0  0  0  0  0  0  0  0  0  0  0  0
   12.7292   10.9960   18.4597 C   0  0  0  0  0  0  0  0  0  0  0  0
    9.3798    6.6793   23.6625 C   0  0  0  0  0  0  0  0  0  0  0  0
   14.7425   10.0739   19.0802 O   0  0  0  0  0  0  0  0  0  0  0  0
    5.1894    9.4673   20.7118 C   0  0  0  0  0  0  0  0  0  0  0  0
    7.3773    8.8224   21.4870 C   0  0  0  0  0  0  0  0  0  0  0  0
    8.4391    6.6439   21.0235 C   0  0  0  0  0  0  0  0  0  0  0  0
    9.6494   11.1353   20.4167 C   0  0  0  0  0  0  0  0  0  0  0  0
    8.1431    7.6829   21.9046 C   0  0  0  0  0  0  0  0  0  0  0  0
    7.7796   10.1314   21.5115 N   0  0  0  0  0  0  0  0  0  0  0  0
    9.2768    5.6183   21.4437 C   0  0  0  0  0  0  0  0  0  0  0  0
    8.6315    7.7322   23.1768 C   0  0  0  0  0  0  0  0  0  0  0  0
   13.0537    9.9821   20.5781 C   0  0  0  0  0  0  0  0  0  0  0  0
   10.3850    4.6575   23.2386 O   0  0  0  0  0  0  0  0  0  0  0  0
    4.2069    6.8450   20.7994 C   0  0  0  0  0  0  0  0  0  0  0  0
    3.0726   10.1043   19.8522 O   0  0  0  0  0  0  0  0  0  0  0  0
    5.5057    7.1196   21.1155 C   0  0  0  0  0  0  0  0  0  0  0  0
    7.0367   11.0229   21.9948 O   0  0  0  0  0  0  0  0  0  0  0  0
  1  8  4  0
  1 12  4  0
  2  9  1  0
  2 11  4  0
  2 25  4  0
  3 12  4  0
  3 14  1  0
  3 23  4  0
  4 13  4  0
  4 21  4  0
  4 24  1  0
  5  8  4  0
  5 23  4  0
  6 18  2  0
  7 15  4  0
  7 16  1  0
  7 27  4  0
  8 18  1  0
 10 18  1  0
 10 20  1  0
 11 15  4  0
 11 26  1  0
 13 22  4  0
 16 19  1  0
 16 20  2  0
 17 19  4  0
 17 21  4  0
 19 22  4  0
 20 28  1  0
 25 27  4  0
M  END
$$$$

 Created by Python create_sdf_string function

 28 30  0  0  0  0  0  0  0  0999 V2000
   11.4592   11.2893   18.7941 C   0  0  0  0  0  0  0  0  0  0  0  0
    3.4202    7.9009   20.3866 C   0  0  0  0  0  0  0  0  0  0  0  0
   13.5280   10.3522   19.3586 C   0  0  0  0  0  0  0  0  0  0  0  0
    9.6923    5.6468   22.7891 C   0  0  0  0  0  0  0  0  0  0  0  0
   11.7756   10.2554   20.8841 N   0  0  0  0  0  0  0  0  0  0  0  0
    8.9876   11.9370   19.8757 O   0  0  0  0  0  0  0  0  0  0  0  0
    6.0167    8.4478   21.1089 C   0  0  0  0  0  0  0  0  0  0  0  0
   11.0002   10.8890   20.0262 C   0  0  0  0  0  0  0  0  0  0  0  0
    2.1721    7.7393   20.0315 O   0  0  0  0  0  0  0  0  0  0  0  0
    9.1107   10.3880   21.3769 N   0  0  0  0  0  0  0  0  0  0  0  0
    3.9102    9.2008   20.3124 C   0  0  0  0  0  0  0  0  0  0  0  0
   12.7292   10.9960   18.4597 C   0  0  0  0  0  0  0  0  0  0  0  0
    9.3798    6.6793   23.6625 C   0  0  0  0  0  0  0  0  0  0  0  0
   14.7425   10.0739   19.0802 O   0  0  0  0  0  0  0  0  0  0  0  0
    5.1894    9.4673   20.7118 C   0  0  0  0  0  0  0  0  0  0  0  0
    7.3773    8.8224   21.4870 C   0  0  0  0  0  0  0  0  0  0  0  0
    8.4391    6.6439   21.0235 C   0  0  0  0  0  0  0  0  0  0  0  0
    9.6494   11.1353   20.4167 C   0  0  0  0  0  0  0  0  0  0  0  0
    8.1431    7.6829   21.9046 C   0  0  0  0  0  0  0  0  0  0  0  0
    7.7796   10.1314   21.5115 N   0  0  0  0  0  0  0  0  0  0  0  0
    9.2768    5.6183   21.4437 C   0  0  0  0  0  0  0  0  0  0  0  0
    8.6315    7.7322   23.1768 C   0  0  0  0  0  0  0  0  0  0  0  0
   13.0537    9.9821   20.5781 C   0  0  0  0  0  0  0  0  0  0  0  0
   10.3850    4.6575   23.2386 O   0  0  0  0  0  0  0  0  0  0  0  0
    4.2069    6.8450   20.7994 C   0  0  0  0  0  0  0  0  0  0  0  0
    3.0726   10.1043   19.8522 O   0  0  0  0  0  0  0  0  0  0  0  0
    5.5057    7.1196   21.1155 C   0  0  0  0  0  0  0  0  0  0  0  0
    7.0367   11.0229   21.9948 O   0  0  0  0  0  0  0  0  0  0  0  0
  1  8  4  0
  1 12  4  0
  2  9  1  0
  2 11  4  0
  2 25  4  0
  3 12  4  0
  3 14  1  0
  3 23  4  0
  4 13  4  0
  4 21  4  0
  4 24  1  0
  5  8  4  0
  5 23  4  0
  6 18  2  0
  7 15  4  0
  7 16  1  0
  7 27  4  0
  8 18  1  0
 10 18  1  0
 10 20  1  0
 11 15  4  0
 11 26  1  0
 13 22  4  0
 16 19  1  0
 16 20  2  0
 17 19  4  0
 17 21  4  0
 19 22  4  0
 20 28  1  0
 25 27  4  0
M  END
$$$$

 Created by Python create_sdf_string function

 28 30  0  0  0  0  0  0  0  0999 V2000
   11.4592   11.2893   18.7941 C   0  0  0  0  0  0  0  0  0  0  0  0
    3.4202    7.9009   20.3866 C   0  0  0  0  0  0  0  0  0  0  0  0
   13.5280   10.3522   19.3586 C   0  0  0  0  0  0  0  0  0  0  0  0
    9.6923    5.6468   22.7891 C   0  0  0  0  0  0  0  0  0  0  0  0
   11.7756   10.2554   20.8841 N   0  0  0  0  0  0  0  0  0  0  0  0
    8.9876   11.9370   19.8757 O   0  0  0  0  0  0  0  0  0  0  0  0
    6.0167    8.4478   21.1089 C   0  0  0  0  0  0  0  0  0  0  0  0
   11.0002   10.8890   20.0262 C   0  0  0  0  0  0  0  0  0  0  0  0
    2.1721    7.7393   20.0315 O   0  0  0  0  0  0  0  0  0  0  0  0
    9.1107   10.3880   21.3769 N   0  0  0  0  0  0  0  0  0  0  0  0
    3.9102    9.2008   20.3124 C   0  0  0  0  0  0  0  0  0  0  0  0
   12.7292   10.9960   18.4597 C   0  0  0  0  0  0  0  0  0  0  0  0
    9.3798    6.6793   23.6625 C   0  0  0  0  0  0  0  0  0  0  0  0
   14.7425   10.0739   19.0802 O   0  0  0  0  0  0  0  0  0  0  0  0
    5.1894    9.4673   20.7118 C   0  0  0  0  0  0  0  0  0  0  0  0
    7.3773    8.8224   21.4870 C   0  0  0  0  0  0  0  0  0  0  0  0
    8.4391    6.6439   21.0235 C   0  0  0  0  0  0  0  0  0  0  0  0
    9.6494   11.1353   20.4167 C   0  0  0  0  0  0  0  0  0  0  0  0
    8.1431    7.6829   21.9046 C   0  0  0  0  0  0  0  0  0  0  0  0
    7.7796   10.1314   21.5115 N   0  0  0  0  0  0  0  0  0  0  0  0
    9.2768    5.6183   21.4437 C   0  0  0  0  0  0  0  0  0  0  0  0
    8.6315    7.7322   23.1768 C   0  0  0  0  0  0  0  0  0  0  0  0
   13.0537    9.9821   20.5781 C   0  0  0  0  0  0  0  0  0  0  0  0
   10.3850    4.6575   23.2386 O   0  0  0  0  0  0  0  0  0  0  0  0
    4.2069    6.8450   20.7994 C   0  0  0  0  0  0  0  0  0  0  0  0
    3.0726   10.1043   19.8522 O   0  0  0  0  0  0  0  0  0  0  0  0
    5.5057    7.1196   21.1155 C   0  0  0  0  0  0  0  0  0  0  0  0
    7.0367   11.0229   21.9948 O   0  0  0  0  0  0  0  0  0  0  0  0
  1  8  4  0
  1 12  4  0
  2  9  1  0
  2 11  4  0
  2 25  4  0
  3 12  4  0
  3 14  1  0
  3 23  4  0
  4 13  4  0
  4 21  4  0
  4 24  1  0
  5  8  4  0
  5 23  4  0
  6 18  2  0
  7 15  4  0
  7 16  1  0
  7 27  4  0
  8 18  1  0
 10 18  1  0
 10 20  1  0
 11 15  4  0
 11 26  1  0
 13 22  4  0
 16 19  1  0
 16 20  2  0
 17 19  4  0
 17 21  4  0
 19 22  4  0
 20 28  1  0
 25 27  4  0
M  END
$$$$

 Created by Python create_sdf_string function

 28 30  0  0  0  0  0  0  0  0999 V2000
   11.4592   11.2893   18.7941 C   0  0  0  0  0  0  0  0  0  0  0  0
    3.4202    7.9009   20.3866 C   0  0  0  0  0  0  0  0  0  0  0  0
   13.5280   10.3522   19.3586 C   0  0  0  0  0  0  0  0  0  0  0  0
    9.6923    5.6468   22.7891 C   0  0  0  0  0  0  0  0  0  0  0  0
   11.7756   10.2554   20.8841 N   0  0  0  0  0  0  0  0  0  0  0  0
    8.9876   11.9370   19.8757 O   0  0  0  0  0  0  0  0  0  0  0  0
    6.0167    8.4478   21.1089 C   0  0  0  0  0  0  0  0  0  0  0  0
   11.0002   10.8890   20.0262 C   0  0  0  0  0  0  0  0  0  0  0  0
    2.1721    7.7393   20.0315 O   0  0  0  0  0  0  0  0  0  0  0  0
    9.1107   10.3880   21.3769 N   0  0  0  0  0  0  0  0  0  0  0  0
    3.9102    9.2008   20.3124 C   0  0  0  0  0  0  0  0  0  0  0  0
   12.7292   10.9960   18.4597 C   0  0  0  0  0  0  0  0  0  0  0  0
    9.3798    6.6793   23.6625 C   0  0  0  0  0  0  0  0  0  0  0  0
   14.7425   10.0739   19.0802 O   0  0  0  0  0  0  0  0  0  0  0  0
    5.1894    9.4673   20.7118 C   0  0  0  0  0  0  0  0  0  0  0  0
    7.3773    8.8224   21.4870 C   0  0  0  0  0  0  0  0  0  0  0  0
    8.4391    6.6439   21.0235 C   0  0  0  0  0  0  0  0  0  0  0  0
    9.6494   11.1353   20.4167 C   0  0  0  0  0  0  0  0  0  0  0  0
    8.1431    7.6829   21.9046 C   0  0  0  0  0  0  0  0  0  0  0  0
    7.7796   10.1314   21.5115 N   0  0  0  0  0  0  0  0  0  0  0  0
    9.2768    5.6183   21.4437 C   0  0  0  0  0  0  0  0  0  0  0  0
    8.6315    7.7322   23.1768 C   0  0  0  0  0  0  0  0  0  0  0  0
   13.0537    9.9821   20.5781 C   0  0  0  0  0  0  0  0  0  0  0  0
   10.3850    4.6575   23.2386 O   0  0  0  0  0  0  0  0  0  0  0  0
    4.2069    6.8450   20.7994 C   0  0  0  0  0  0  0  0  0  0  0  0
    3.0726   10.1043   19.8522 O   0  0  0  0  0  0  0  0  0  0  0  0
    5.5057    7.1196   21.1155 C   0  0  0  0  0  0  0  0  0  0  0  0
    7.0367   11.0229   21.9948 O   0  0  0  0  0  0  0  0  0  0  0  0
  1  8  4  0
  1 12  4  0
  2  9  1  0
  2 11  4  0
  2 25  4  0
  3 12  4  0
  3 14  1  0
  3 23  4  0
  4 13  4  0
  4 21  4  0
  4 24  1  0
  5  8  4  0
  5 23  4  0
  6 18  2  0
  7 15  4  0
  7 16  1  0
  7 27  4  0
  8 18  1  0
 10 18  1  0
 10 20  1  0
 11 15  4  0
 11 26  1  0
 13 22  4  0
 16 19  1  0
 16 20  2  0
 17 19  4  0
 17 21  4  0
 19 22  4  0
 20 28  1  0
 25 27  4  0
M  END
$$$$

 Created by Python create_sdf_string function

 28 30  0  0  0  0  0  0  0  0999 V2000
   11.4592   11.2893   18.7941 C   0  0  0  0  0  0  0  0  0  0  0  0
    3.4202    7.9009   20.3866 C   0  0  0  0  0  0  0  0  0  0  0  0
   13.5280   10.3522   19.3586 C   0  0  0  0  0  0  0  0  0  0  0  0
    9.6923    5.6468   22.7891 C   0  0  0  0  0  0  0  0  0  0  0  0
   11.7756   10.2554   20.8841 N   0  0  0  0  0  0  0  0  0  0  0  0
    8.9876   11.9370   19.8757 O   0  0  0  0  0  0  0  0  0  0  0  0
    6.0167    8.4478   21.1089 C   0  0  0  0  0  0  0  0  0  0  0  0
   11.0002   10.8890   20.0262 C   0  0  0  0  0  0  0  0  0  0  0  0
    2.1721    7.7393   20.0315 O   0  0  0  0  0  0  0  0  0  0  0  0
    9.1107   10.3880   21.3769 N   0  0  0  0  0  0  0  0  0  0  0  0
    3.9102    9.2008   20.3124 C   0  0  0  0  0  0  0  0  0  0  0  0
   12.7292   10.9960   18.4597 C   0  0  0  0  0  0  0  0  0  0  0  0
    9.3798    6.6793   23.6625 C   0  0  0  0  0  0  0  0  0  0  0  0
   14.7425   10.0739   19.0802 O   0  0  0  0  0  0  0  0  0  0  0  0
    5.1894    9.4673   20.7118 C   0  0  0  0  0  0  0  0  0  0  0  0
    7.3773    8.8224   21.4870 C   0  0  0  0  0  0  0  0  0  0  0  0
    8.4391    6.6439   21.0235 C   0  0  0  0  0  0  0  0  0  0  0  0
    9.6494   11.1353   20.4167 C   0  0  0  0  0  0  0  0  0  0  0  0
    8.1431    7.6829   21.9046 C   0  0  0  0  0  0  0  0  0  0  0  0
    7.7796   10.1314   21.5115 N   0  0  0  0  0  0  0  0  0  0  0  0
    9.2768    5.6183   21.4437 C   0  0  0  0  0  0  0  0  0  0  0  0
    8.6315    7.7322   23.1768 C   0  0  0  0  0  0  0  0  0  0  0  0
   13.0537    9.9821   20.5781 C   0  0  0  0  0  0  0  0  0  0  0  0
   10.3850    4.6575   23.2386 O   0  0  0  0  0  0  0  0  0  0  0  0
    4.2069    6.8450   20.7994 C   0  0  0  0  0  0  0  0  0  0  0  0
    3.0726   10.1043   19.8522 O   0  0  0  0  0  0  0  0  0  0  0  0
    5.5057    7.1196   21.1155 C   0  0  0  0  0  0  0  0  0  0  0  0
    7.0367   11.0229   21.9948 O   0  0  0  0  0  0  0  0  0  0  0  0
  1  8  4  0
  1 12  4  0
  2  9  1  0
  2 11  4  0
  2 25  4  0
  3 12  4  0
  3 14  1  0
  3 23  4  0
  4 13  4  0
  4 21  4  0
  4 24  1  0
  5  8  4  0
  5 23  4  0
  6 18  2  0
  7 15  4  0
  7 16  1  0
  7 27  4  0
  8 18  1  0
 10 18  1  0
 10 20  1  0
 11 15  4  0
 11 26  1  0
 13 22  4  0
 16 19  1  0
 16 20  2  0
 17 19  4  0
 17 21  4  0
 19 22  4  0
 20 28  1  0
 25 27  4  0
M  END
$$$$

 Created by Python create_sdf_string function

 28 30  0  0  0  0  0  0  0  0999 V2000
   11.4592   11.2893   18.7941 C   0  0  0  0  0  0  0  0  0  0  0  0
    3.4202    7.9009   20.3866 C   0  0  0  0  0  0  0  0  0  0  0  0
   13.5280   10.3522   19.3586 C   0  0  0  0  0  0  0  0  0  0  0  0
    9.6923    5.6468   22.7891 C   0  0  0  0  0  0  0  0  0  0  0  0
   11.7756   10.2554   20.8841 N   0  0  0  0  0  0  0  0  0  0  0  0
    8.9876   11.9370   19.8757 O   0  0  0  0  0  0  0  0  0  0  0  0
    6.0167    8.4478   21.1089 C   0  0  0  0  0  0  0  0  0  0  0  0
   11.0002   10.8890   20.0262 C   0  0  0  0  0  0  0  0  0  0  0  0
    2.1721    7.7393   20.0315 O   0  0  0  0  0  0  0  0  0  0  0  0
    9.1107   10.3880   21.3769 N   0  0  0  0  0  0  0  0  0  0  0  0
    3.9102    9.2008   20.3124 C   0  0  0  0  0  0  0  0  0  0  0  0
   12.7292   10.9960   18.4597 C   0  0  0  0  0  0  0  0  0  0  0  0
    9.3798    6.6793   23.6625 C   0  0  0  0  0  0  0  0  0  0  0  0
   14.7425   10.0739   19.0802 O   0  0  0  0  0  0  0  0  0  0  0  0
    5.1894    9.4673   20.7118 C   0  0  0  0  0  0  0  0  0  0  0  0
    7.3773    8.8224   21.4870 C   0  0  0  0  0  0  0  0  0  0  0  0
    8.4391    6.6439   21.0235 C   0  0  0  0  0  0  0  0  0  0  0  0
    9.6494   11.1353   20.4167 C   0  0  0  0  0  0  0  0  0  0  0  0
    8.1431    7.6829   21.9046 C   0  0  0  0  0  0  0  0  0  0  0  0
    7.7796   10.1314   21.5115 N   0  0  0  0  0  0  0  0  0  0  0  0
    9.2768    5.6183   21.4437 C   0  0  0  0  0  0  0  0  0  0  0  0
    8.6315    7.7322   23.1768 C   0  0  0  0  0  0  0  0  0  0  0  0
   13.0537    9.9821   20.5781 C   0  0  0  0  0  0  0  0  0  0  0  0
   10.3850    4.6575   23.2386 O   0  0  0  0  0  0  0  0  0  0  0  0
    4.2069    6.8450   20.7994 C   0  0  0  0  0  0  0  0  0  0  0  0
    3.0726   10.1043   19.8522 O   0  0  0  0  0  0  0  0  0  0  0  0
    5.5057    7.1196   21.1155 C   0  0  0  0  0  0  0  0  0  0  0  0
    7.0367   11.0229   21.9948 O   0  0  0  0  0  0  0  0  0  0  0  0
  1  8  4  0
  1 12  4  0
  2  9  1  0
  2 11  4  0
  2 25  4  0
  3 12  4  0
  3 14  1  0
  3 23  4  0
  4 13  4  0
  4 21  4  0
  4 24  1  0
  5  8  4  0
  5 23  4  0
  6 18  2  0
  7 15  4  0
  7 16  1  0
  7 27  4  0
  8 18  1  0
 10 18  1  0
 10 20  1  0
 11 15  4  0
 11 26  1  0
 13 22  4  0
 16 19  1  0
 16 20  2  0
 17 19  4  0
 17 21  4  0
 19 22  4  0
 20 28  1  0
 25 27  4  0
M  END
$$$$

 Created by Python create_sdf_string function

 28 30  0  0  0  0  0  0  0  0999 V2000
   11.4592   11.2893   18.7941 C   0  0  0  0  0  0  0  0  0  0  0  0
    3.4202    7.9009   20.3866 C   0  0  0  0  0  0  0  0  0  0  0  0
   13.5280   10.3522   19.3586 C   0  0  0  0  0  0  0  0  0  0  0  0
    9.6923    5.6468   22.7891 C   0  0  0  0  0  0  0  0  0  0  0  0
   11.7756   10.2554   20.8841 N   0  0  0  0  0  0  0  0  0  0  0  0
    8.9876   11.9370   19.8757 O   0  0  0  0  0  0  0  0  0  0  0  0
    6.0167    8.4478   21.1089 C   0  0  0  0  0  0  0  0  0  0  0  0
   11.0002   10.8890   20.0262 C   0  0  0  0  0  0  0  0  0  0  0  0
    2.1721    7.7393   20.0315 O   0  0  0  0  0  0  0  0  0  0  0  0
    9.1107   10.3880   21.3769 N   0  0  0  0  0  0  0  0  0  0  0  0
    3.9102    9.2008   20.3124 C   0  0  0  0  0  0  0  0  0  0  0  0
   12.7292   10.9960   18.4597 C   0  0  0  0  0  0  0  0  0  0  0  0
    9.3798    6.6793   23.6625 C   0  0  0  0  0  0  0  0  0  0  0  0
   14.7425   10.0739   19.0802 O   0  0  0  0  0  0  0  0  0  0  0  0
    5.1894    9.4673   20.7118 C   0  0  0  0  0  0  0  0  0  0  0  0
    7.3773    8.8224   21.4870 C   0  0  0  0  0  0  0  0  0  0  0  0
    8.4391    6.6439   21.0235 C   0  0  0  0  0  0  0  0  0  0  0  0
    9.6494   11.1353   20.4167 C   0  0  0  0  0  0  0  0  0  0  0  0
    8.1431    7.6829   21.9046 C   0  0  0  0  0  0  0  0  0  0  0  0
    7.7796   10.1314   21.5115 N   0  0  0  0  0  0  0  0  0  0  0  0
    9.2768    5.6183   21.4437 C   0  0  0  0  0  0  0  0  0  0  0  0
    8.6315    7.7322   23.1768 C   0  0  0  0  0  0  0  0  0  0  0  0
   13.0537    9.9821   20.5781 C   0  0  0  0  0  0  0  0  0  0  0  0
   10.3850    4.6575   23.2386 O   0  0  0  0  0  0  0  0  0  0  0  0
    4.2069    6.8450   20.7994 C   0  0  0  0  0  0  0  0  0  0  0  0
    3.0726   10.1043   19.8522 O   0  0  0  0  0  0  0  0  0  0  0  0
    5.5057    7.1196   21.1155 C   0  0  0  0  0  0  0  0  0  0  0  0
    7.0367   11.0229   21.9948 O   0  0  0  0  0  0  0  0  0  0  0  0
  1  8  4  0
  1 12  4  0
  2  9  1  0
  2 11  4  0
  2 25  4  0
  3 12  4  0
  3 14  1  0
  3 23  4  0
  4 13  4  0
  4 21  4  0
  4 24  1  0
  5  8  4  0
  5 23  4  0
  6 18  2  0
  7 15  4  0
  7 16  1  0
  7 27  4  0
  8 18  1  0
 10 18  1  0
 10 20  1  0
 11 15  4  0
 11 26  1  0
 13 22  4  0
 16 19  1  0
 16 20  2  0
 17 19  4  0
 17 21  4  0
 19 22  4  0
 20 28  1  0
 25 27  4  0
M  END
$$$$

 Created by Python create_sdf_string function

 28 30  0  0  0  0  0  0  0  0999 V2000
   11.4592   11.2893   18.7941 C   0  0  0  0  0  0  0  0  0  0  0  0
    3.4202    7.9009   20.3866 C   0  0  0  0  0  0  0  0  0  0  0  0
   13.5280   10.3522   19.3586 C   0  0  0  0  0  0  0  0  0  0  0  0
    9.6923    5.6468   22.7891 C   0  0  0  0  0  0  0  0  0  0  0  0
   11.7756   10.2554   20.8841 N   0  0  0  0  0  0  0  0  0  0  0  0
    8.9876   11.9370   19.8757 O   0  0  0  0  0  0  0  0  0  0  0  0
    6.0167    8.4478   21.1089 C   0  0  0  0  0  0  0  0  0  0  0  0
   11.0002   10.8890   20.0262 C   0  0  0  0  0  0  0  0  0  0  0  0
    2.1721    7.7393   20.0315 O   0  0  0  0  0  0  0  0  0  0  0  0
    9.1107   10.3880   21.3769 N   0  0  0  0  0  0  0  0  0  0  0  0
    3.9102    9.2008   20.3124 C   0  0  0  0  0  0  0  0  0  0  0  0
   12.7292   10.9960   18.4597 C   0  0  0  0  0  0  0  0  0  0  0  0
    9.3798    6.6793   23.6625 C   0  0  0  0  0  0  0  0  0  0  0  0
   14.7425   10.0739   19.0802 O   0  0  0  0  0  0  0  0  0  0  0  0
    5.1894    9.4673   20.7118 C   0  0  0  0  0  0  0  0  0  0  0  0
    7.3773    8.8224   21.4870 C   0  0  0  0  0  0  0  0  0  0  0  0
    8.4391    6.6439   21.0235 C   0  0  0  0  0  0  0  0  0  0  0  0
    9.6494   11.1353   20.4167 C   0  0  0  0  0  0  0  0  0  0  0  0
    8.1431    7.6829   21.9046 C   0  0  0  0  0  0  0  0  0  0  0  0
    7.7796   10.1314   21.5115 N   0  0  0  0  0  0  0  0  0  0  0  0
    9.2768    5.6183   21.4437 C   0  0  0  0  0  0  0  0  0  0  0  0
    8.6315    7.7322   23.1768 C   0  0  0  0  0  0  0  0  0  0  0  0
   13.0537    9.9821   20.5781 C   0  0  0  0  0  0  0  0  0  0  0  0
   10.3850    4.6575   23.2386 O   0  0  0  0  0  0  0  0  0  0  0  0
    4.2069    6.8450   20.7994 C   0  0  0  0  0  0  0  0  0  0  0  0
    3.0726   10.1043   19.8522 O   0  0  0  0  0  0  0  0  0  0  0  0
    5.5057    7.1196   21.1155 C   0  0  0  0  0  0  0  0  0  0  0  0
    7.0367   11.0229   21.9948 O   0  0  0  0  0  0  0  0  0  0  0  0
  1  8  4  0
  1 12  4  0
  2  9  1  0
  2 11  4  0
  2 25  4  0
  3 12  4  0
  3 14  1  0
  3 23  4  0
  4 13  4  0
  4 21  4  0
  4 24  1  0
  5  8  4  0
  5 23  4  0
  6 18  2  0
  7 15  4  0
  7 16  1  0
  7 27  4  0
  8 18  1  0
 10 18  1  0
 10 20  1  0
 11 15  4  0
 11 26  1  0
 13 22  4  0
 16 19  1  0
 16 20  2  0
 17 19  4  0
 17 21  4  0
 19 22  4  0
 20 28  1  0
 25 27  4  0
M  END
$$$$

 Created by Python create_sdf_string function

 28 30  0  0  0  0  0  0  0  0999 V2000
   11.4592   11.2893   18.7941 C   0  0  0  0  0  0  0  0  0  0  0  0
    3.4202    7.9009   20.3866 C   0  0  0  0  0  0  0  0  0  0  0  0
   13.5280   10.3522   19.3586 C   0  0  0  0  0  0  0  0  0  0  0  0
    9.6923    5.6468   22.7891 C   0  0  0  0  0  0  0  0  0  0  0  0
   11.7756   10.2554   20.8841 N   0  0  0  0  0  0  0  0  0  0  0  0
    8.9876   11.9370   19.8757 O   0  0  0  0  0  0  0  0  0  0  0  0
    6.0167    8.4478   21.1089 C   0  0  0  0  0  0  0  0  0  0  0  0
   11.0002   10.8890   20.0262 C   0  0  0  0  0  0  0  0  0  0  0  0
    2.1721    7.7393   20.0315 O   0  0  0  0  0  0  0  0  0  0  0  0
    9.1107   10.3880   21.3769 N   0  0  0  0  0  0  0  0  0  0  0  0
    3.9102    9.2008   20.3124 C   0  0  0  0  0  0  0  0  0  0  0  0
   12.7292   10.9960   18.4597 C   0  0  0  0  0  0  0  0  0  0  0  0
    9.3798    6.6793   23.6625 C   0  0  0  0  0  0  0  0  0  0  0  0
   14.7425   10.0739   19.0802 O   0  0  0  0  0  0  0  0  0  0  0  0
    5.1894    9.4673   20.7118 C   0  0  0  0  0  0  0  0  0  0  0  0
    7.3773    8.8224   21.4870 C   0  0  0  0  0  0  0  0  0  0  0  0
    8.4391    6.6439   21.0235 C   0  0  0  0  0  0  0  0  0  0  0  0
    9.6494   11.1353   20.4167 C   0  0  0  0  0  0  0  0  0  0  0  0
    8.1431    7.6829   21.9046 C   0  0  0  0  0  0  0  0  0  0  0  0
    7.7796   10.1314   21.5115 N   0  0  0  0  0  0  0  0  0  0  0  0
    9.2768    5.6183   21.4437 C   0  0  0  0  0  0  0  0  0  0  0  0
    8.6315    7.7322   23.1768 C   0  0  0  0  0  0  0  0  0  0  0  0
   13.0537    9.9821   20.5781 C   0  0  0  0  0  0  0  0  0  0  0  0
   10.3850    4.6575   23.2386 O   0  0  0  0  0  0  0  0  0  0  0  0
    4.2069    6.8450   20.7994 C   0  0  0  0  0  0  0  0  0  0  0  0
    3.0726   10.1043   19.8522 O   0  0  0  0  0  0  0  0  0  0  0  0
    5.5057    7.1196   21.1155 C   0  0  0  0  0  0  0  0  0  0  0  0
    7.0367   11.0229   21.9948 O   0  0  0  0  0  0  0  0  0  0  0  0
  1  8  4  0
  1 12  4  0
  2  9  1  0
  2 11  4  0
  2 25  4  0
  3 12  4  0
  3 14  1  0
  3 23  4  0
  4 13  4  0
  4 21  4  0
  4 24  1  0
  5  8  4  0
  5 23  4  0
  6 18  2  0
  7 15  4  0
  7 16  1  0
  7 27  4  0
  8 18  1  0
 10 18  1  0
 10 20  1  0
 11 15  4  0
 11 26  1  0
 13 22  4  0
 16 19  1  0
 16 20  2  0
 17 19  4  0
 17 21  4  0
 19 22  4  0
 20 28  1  0
 25 27  4  0
M  END
$$$$

 Created by Python create_sdf_string function

 28 30  0  0  0  0  0  0  0  0999 V2000
   11.4592   11.2893   18.7941 C   0  0  0  0  0  0  0  0  0  0  0  0
    3.4202    7.9009   20.3866 C   0  0  0  0  0  0  0  0  0  0  0  0
   13.5280   10.3522   19.3586 C   0  0  0  0  0  0  0  0  0  0  0  0
    9.6923    5.6468   22.7891 C   0  0  0  0  0  0  0  0  0  0  0  0
   11.7756   10.2554   20.8841 N   0  0  0  0  0  0  0  0  0  0  0  0
    8.9876   11.9370   19.8757 O   0  0  0  0  0  0  0  0  0  0  0  0
    6.0167    8.4478   21.1089 C   0  0  0  0  0  0  0  0  0  0  0  0
   11.0002   10.8890   20.0262 C   0  0  0  0  0  0  0  0  0  0  0  0
    2.1721    7.7393   20.0315 O   0  0  0  0  0  0  0  0  0  0  0  0
    9.1107   10.3880   21.3769 N   0  0  0  0  0  0  0  0  0  0  0  0
    3.9102    9.2008   20.3124 C   0  0  0  0  0  0  0  0  0  0  0  0
   12.7292   10.9960   18.4597 C   0  0  0  0  0  0  0  0  0  0  0  0
    9.3798    6.6793   23.6625 C   0  0  0  0  0  0  0  0  0  0  0  0
   14.7425   10.0739   19.0802 O   0  0  0  0  0  0  0  0  0  0  0  0
    5.1894    9.4673   20.7118 C   0  0  0  0  0  0  0  0  0  0  0  0
    7.3773    8.8224   21.4870 C   0  0  0  0  0  0  0  0  0  0  0  0
    8.4391    6.6439   21.0235 C   0  0  0  0  0  0  0  0  0  0  0  0
    9.6494   11.1353   20.4167 C   0  0  0  0  0  0  0  0  0  0  0  0
    8.1431    7.6829   21.9046 C   0  0  0  0  0  0  0  0  0  0  0  0
    7.7796   10.1314   21.5115 N   0  0  0  0  0  0  0  0  0  0  0  0
    9.2768    5.6183   21.4437 C   0  0  0  0  0  0  0  0  0  0  0  0
    8.6315    7.7322   23.1768 C   0  0  0  0  0  0  0  0  0  0  0  0
   13.0537    9.9821   20.5781 C   0  0  0  0  0  0  0  0  0  0  0  0
   10.3850    4.6575   23.2386 O   0  0  0  0  0  0  0  0  0  0  0  0
    4.2069    6.8450   20.7994 C   0  0  0  0  0  0  0  0  0  0  0  0
    3.0726   10.1043   19.8522 O   0  0  0  0  0  0  0  0  0  0  0  0
    5.5057    7.1196   21.1155 C   0  0  0  0  0  0  0  0  0  0  0  0
    7.0367   11.0229   21.9948 O   0  0  0  0  0  0  0  0  0  0  0  0
  1  8  4  0
  1 12  4  0
  2  9  1  0
  2 11  4  0
  2 25  4  0
  3 12  4  0
  3 14  1  0
  3 23  4  0
  4 13  4  0
  4 21  4  0
  4 24  1  0
  5  8  4  0
  5 23  4  0
  6 18  2  0
  7 15  4  0
  7 16  1  0
  7 27  4  0
  8 18  1  0
 10 18  1  0
 10 20  1  0
 11 15  4  0
 11 26  1  0
 13 22  4  0
 16 19  1  0
 16 20  2  0
 17 19  4  0
 17 21  4  0
 19 22  4  0
 20 28  1  0
 25 27  4  0
M  END
$$$$

 Created by Python create_sdf_string function

 28 30  0  0  0  0  0  0  0  0999 V2000
   11.4592   11.2893   18.7941 C   0  0  0  0  0  0  0  0  0  0  0  0
    3.4202    7.9009   20.3866 C   0  0  0  0  0  0  0  0  0  0  0  0
   13.5280   10.3522   19.3586 C   0  0  0  0  0  0  0  0  0  0  0  0
    9.6923    5.6468   22.7891 C   0  0  0  0  0  0  0  0  0  0  0  0
   11.7756   10.2554   20.8841 N   0  0  0  0  0  0  0  0  0  0  0  0
    8.9876   11.9370   19.8757 O   0  0  0  0  0  0  0  0  0  0  0  0
    6.0167    8.4478   21.1089 C   0  0  0  0  0  0  0  0  0  0  0  0
   11.0002   10.8890   20.0262 C   0  0  0  0  0  0  0  0  0  0  0  0
    2.1721    7.7393   20.0315 O   0  0  0  0  0  0  0  0  0  0  0  0
    9.1107   10.3880   21.3769 N   0  0  0  0  0  0  0  0  0  0  0  0
    3.9102    9.2008   20.3124 C   0  0  0  0  0  0  0  0  0  0  0  0
   12.7292   10.9960   18.4597 C   0  0  0  0  0  0  0  0  0  0  0  0
    9.3798    6.6793   23.6625 C   0  0  0  0  0  0  0  0  0  0  0  0
   14.7425   10.0739   19.0802 O   0  0  0  0  0  0  0  0  0  0  0  0
    5.1894    9.4673   20.7118 C   0  0  0  0  0  0  0  0  0  0  0  0
    7.3773    8.8224   21.4870 C   0  0  0  0  0  0  0  0  0  0  0  0
    8.4391    6.6439   21.0235 C   0  0  0  0  0  0  0  0  0  0  0  0
    9.6494   11.1353   20.4167 C   0  0  0  0  0  0  0  0  0  0  0  0
    8.1431    7.6829   21.9046 C   0  0  0  0  0  0  0  0  0  0  0  0
    7.7796   10.1314   21.5115 N   0  0  0  0  0  0  0  0  0  0  0  0
    9.2768    5.6183   21.4437 C   0  0  0  0  0  0  0  0  0  0  0  0
    8.6315    7.7322   23.1768 C   0  0  0  0  0  0  0  0  0  0  0  0
   13.0537    9.9821   20.5781 C   0  0  0  0  0  0  0  0  0  0  0  0
   10.3850    4.6575   23.2386 O   0  0  0  0  0  0  0  0  0  0  0  0
    4.2069    6.8450   20.7994 C   0  0  0  0  0  0  0  0  0  0  0  0
    3.0726   10.1043   19.8522 O   0  0  0  0  0  0  0  0  0  0  0  0
    5.5057    7.1196   21.1155 C   0  0  0  0  0  0  0  0  0  0  0  0
    7.0367   11.0229   21.9948 O   0  0  0  0  0  0  0  0  0  0  0  0
  1  8  4  0
  1 12  4  0
  2  9  1  0
  2 11  4  0
  2 25  4  0
  3 12  4  0
  3 14  1  0
  3 23  4  0
  4 13  4  0
  4 21  4  0
  4 24  1  0
  5  8  4  0
  5 23  4  0
  6 18  2  0
  7 15  4  0
  7 16  1  0
  7 27  4  0
  8 18  1  0
 10 18  1  0
 10 20  1  0
 11 15  4  0
 11 26  1  0
 13 22  4  0
 16 19  1  0
 16 20  2  0
 17 19  4  0
 17 21  4  0
 19 22  4  0
 20 28  1  0
 25 27  4  0
M  END
$$$$

 Created by Python create_sdf_string function

 28 30  0  0  0  0  0  0  0  0999 V2000
   11.4592   11.2893   18.7941 C   0  0  0  0  0  0  0  0  0  0  0  0
    3.4202    7.9009   20.3866 C   0  0  0  0  0  0  0  0  0  0  0  0
   13.5280   10.3522   19.3586 C   0  0  0  0  0  0  0  0  0  0  0  0
    9.6923    5.6468   22.7891 C   0  0  0  0  0  0  0  0  0  0  0  0
   11.7756   10.2554   20.8841 N   0  0  0  0  0  0  0  0  0  0  0  0
    8.9876   11.9370   19.8757 O   0  0  0  0  0  0  0  0  0  0  0  0
    6.0167    8.4478   21.1089 C   0  0  0  0  0  0  0  0  0  0  0  0
   11.0002   10.8890   20.0262 C   0  0  0  0  0  0  0  0  0  0  0  0
    2.1721    7.7393   20.0315 O   0  0  0  0  0  0  0  0  0  0  0  0
    9.1107   10.3880   21.3769 N   0  0  0  0  0  0  0  0  0  0  0  0
    3.9102    9.2008   20.3124 C   0  0  0  0  0  0  0  0  0  0  0  0
   12.7292   10.9960   18.4597 C   0  0  0  0  0  0  0  0  0  0  0  0
    9.3798    6.6793   23.6625 C   0  0  0  0  0  0  0  0  0  0  0  0
   14.7425   10.0739   19.0802 O   0  0  0  0  0  0  0  0  0  0  0  0
    5.1894    9.4673   20.7118 C   0  0  0  0  0  0  0  0  0  0  0  0
    7.3773    8.8224   21.4870 C   0  0  0  0  0  0  0  0  0  0  0  0
    8.4391    6.6439   21.0235 C   0  0  0  0  0  0  0  0  0  0  0  0
    9.6494   11.1353   20.4167 C   0  0  0  0  0  0  0  0  0  0  0  0
    8.1431    7.6829   21.9046 C   0  0  0  0  0  0  0  0  0  0  0  0
    7.7796   10.1314   21.5115 N   0  0  0  0  0  0  0  0  0  0  0  0
    9.2768    5.6183   21.4437 C   0  0  0  0  0  0  0  0  0  0  0  0
    8.6315    7.7322   23.1768 C   0  0  0  0  0  0  0  0  0  0  0  0
   13.0537    9.9821   20.5781 C   0  0  0  0  0  0  0  0  0  0  0  0
   10.3850    4.6575   23.2386 O   0  0  0  0  0  0  0  0  0  0  0  0
    4.2069    6.8450   20.7994 C   0  0  0  0  0  0  0  0  0  0  0  0
    3.0726   10.1043   19.8522 O   0  0  0  0  0  0  0  0  0  0  0  0
    5.5057    7.1196   21.1155 C   0  0  0  0  0  0  0  0  0  0  0  0
    7.0367   11.0229   21.9948 O   0  0  0  0  0  0  0  0  0  0  0  0
  1  8  4  0
  1 12  4  0
  2  9  1  0
  2 11  4  0
  2 25  4  0
  3 12  4  0
  3 14  1  0
  3 23  4  0
  4 13  4  0
  4 21  4  0
  4 24  1  0
  5  8  4  0
  5 23  4  0
  6 18  2  0
  7 15  4  0
  7 16  1  0
  7 27  4  0
  8 18  1  0
 10 18  1  0
 10 20  1  0
 11 15  4  0
 11 26  1  0
 13 22  4  0
 16 19  1  0
 16 20  2  0
 17 19  4  0
 17 21  4  0
 19 22  4  0
 20 28  1  0
 25 27  4  0
M  END
$$$$

 Created by Python create_sdf_string function

 28 30  0  0  0  0  0  0  0  0999 V2000
   11.4592   11.2893   18.7941 C   0  0  0  0  0  0  0  0  0  0  0  0
    3.4202    7.9009   20.3866 C   0  0  0  0  0  0  0  0  0  0  0  0
   13.5280   10.3522   19.3586 C   0  0  0  0  0  0  0  0  0  0  0  0
    9.6923    5.6468   22.7891 C   0  0  0  0  0  0  0  0  0  0  0  0
   11.7756   10.2554   20.8841 N   0  0  0  0  0  0  0  0  0  0  0  0
    8.9876   11.9370   19.8757 O   0  0  0  0  0  0  0  0  0  0  0  0
    6.0167    8.4478   21.1089 C   0  0  0  0  0  0  0  0  0  0  0  0
   11.0002   10.8890   20.0262 C   0  0  0  0  0  0  0  0  0  0  0  0
    2.1721    7.7393   20.0315 O   0  0  0  0  0  0  0  0  0  0  0  0
    9.1107   10.3880   21.3769 N   0  0  0  0  0  0  0  0  0  0  0  0
    3.9102    9.2008   20.3124 C   0  0  0  0  0  0  0  0  0  0  0  0
   12.7292   10.9960   18.4597 C   0  0  0  0  0  0  0  0  0  0  0  0
    9.3798    6.6793   23.6625 C   0  0  0  0  0  0  0  0  0  0  0  0
   14.7425   10.0739   19.0802 O   0  0  0  0  0  0  0  0  0  0  0  0
    5.1894    9.4673   20.7118 C   0  0  0  0  0  0  0  0  0  0  0  0
    7.3773    8.8224   21.4870 C   0  0  0  0  0  0  0  0  0  0  0  0
    8.4391    6.6439   21.0235 C   0  0  0  0  0  0  0  0  0  0  0  0
    9.6494   11.1353   20.4167 C   0  0  0  0  0  0  0  0  0  0  0  0
    8.1431    7.6829   21.9046 C   0  0  0  0  0  0  0  0  0  0  0  0
    7.7796   10.1314   21.5115 N   0  0  0  0  0  0  0  0  0  0  0  0
    9.2768    5.6183   21.4437 C   0  0  0  0  0  0  0  0  0  0  0  0
    8.6315    7.7322   23.1768 C   0  0  0  0  0  0  0  0  0  0  0  0
   13.0537    9.9821   20.5781 C   0  0  0  0  0  0  0  0  0  0  0  0
   10.3850    4.6575   23.2386 O   0  0  0  0  0  0  0  0  0  0  0  0
    4.2069    6.8450   20.7994 C   0  0  0  0  0  0  0  0  0  0  0  0
    3.0726   10.1043   19.8522 O   0  0  0  0  0  0  0  0  0  0  0  0
    5.5057    7.1196   21.1155 C   0  0  0  0  0  0  0  0  0  0  0  0
    7.0367   11.0229   21.9948 O   0  0  0  0  0  0  0  0  0  0  0  0
  1  8  4  0
  1 12  4  0
  2  9  1  0
  2 11  4  0
  2 25  4  0
  3 12  4  0
  3 14  1  0
  3 23  4  0
  4 13  4  0
  4 21  4  0
  4 24  1  0
  5  8  4  0
  5 23  4  0
  6 18  2  0
  7 15  4  0
  7 16  1  0
  7 27  4  0
  8 18  1  0
 10 18  1  0
 10 20  1  0
 11 15  4  0
 11 26  1  0
 13 22  4  0
 16 19  1  0
 16 20  2  0
 17 19  4  0
 17 21  4  0
 19 22  4  0
 20 28  1  0
 25 27  4  0
M  END
$$$$

 Created by Python create_sdf_string function

 28 30  0  0  0  0  0  0  0  0999 V2000
   11.4592   11.2893   18.7941 C   0  0  0  0  0  0  0  0  0  0  0  0
    3.4202    7.9009   20.3866 C   0  0  0  0  0  0  0  0  0  0  0  0
   13.5280   10.3522   19.3586 C   0  0  0  0  0  0  0  0  0  0  0  0
    9.6923    5.6468   22.7891 C   0  0  0  0  0  0  0  0  0  0  0  0
   11.7756   10.2554   20.8841 N   0  0  0  0  0  0  0  0  0  0  0  0
    8.9876   11.9370   19.8757 O   0  0  0  0  0  0  0  0  0  0  0  0
    6.0167    8.4478   21.1089 C   0  0  0  0  0  0  0  0  0  0  0  0
   11.0002   10.8890   20.0262 C   0  0  0  0  0  0  0  0  0  0  0  0
    2.1721    7.7393   20.0315 O   0  0  0  0  0  0  0  0  0  0  0  0
    9.1107   10.3880   21.3769 N   0  0  0  0  0  0  0  0  0  0  0  0
    3.9102    9.2008   20.3124 C   0  0  0  0  0  0  0  0  0  0  0  0
   12.7292   10.9960   18.4597 C   0  0  0  0  0  0  0  0  0  0  0  0
    9.3798    6.6793   23.6625 C   0  0  0  0  0  0  0  0  0  0  0  0
   14.7425   10.0739   19.0802 O   0  0  0  0  0  0  0  0  0  0  0  0
    5.1894    9.4673   20.7118 C   0  0  0  0  0  0  0  0  0  0  0  0
    7.3773    8.8224   21.4870 C   0  0  0  0  0  0  0  0  0  0  0  0
    8.4391    6.6439   21.0235 C   0  0  0  0  0  0  0  0  0  0  0  0
    9.6494   11.1353   20.4167 C   0  0  0  0  0  0  0  0  0  0  0  0
    8.1431    7.6829   21.9046 C   0  0  0  0  0  0  0  0  0  0  0  0
    7.7796   10.1314   21.5115 N   0  0  0  0  0  0  0  0  0  0  0  0
    9.2768    5.6183   21.4437 C   0  0  0  0  0  0  0  0  0  0  0  0
    8.6315    7.7322   23.1768 C   0  0  0  0  0  0  0  0  0  0  0  0
   13.0537    9.9821   20.5781 C   0  0  0  0  0  0  0  0  0  0  0  0
   10.3850    4.6575   23.2386 O   0  0  0  0  0  0  0  0  0  0  0  0
    4.2069    6.8450   20.7994 C   0  0  0  0  0  0  0  0  0  0  0  0
    3.0726   10.1043   19.8522 O   0  0  0  0  0  0  0  0  0  0  0  0
    5.5057    7.1196   21.1155 C   0  0  0  0  0  0  0  0  0  0  0  0
    7.0367   11.0229   21.9948 O   0  0  0  0  0  0  0  0  0  0  0  0
  1  8  4  0
  1 12  4  0
  2  9  1  0
  2 11  4  0
  2 25  4  0
  3 12  4  0
  3 14  1  0
  3 23  4  0
  4 13  4  0
  4 21  4  0
  4 24  1  0
  5  8  4  0
  5 23  4  0
  6 18  2  0
  7 15  4  0
  7 16  1  0
  7 27  4  0
  8 18  1  0
 10 18  1  0
 10 20  1  0
 11 15  4  0
 11 26  1  0
 13 22  4  0
 16 19  1  0
 16 20  2  0
 17 19  4  0
 17 21  4  0
 19 22  4  0
 20 28  1  0
 25 27  4  0
M  END
$$$$

 Created by Python create_sdf_string function

 28 30  0  0  0  0  0  0  0  0999 V2000
   11.4592   11.2893   18.7941 C   0  0  0  0  0  0  0  0  0  0  0  0
    3.4202    7.9009   20.3866 C   0  0  0  0  0  0  0  0  0  0  0  0
   13.5280   10.3522   19.3586 C   0  0  0  0  0  0  0  0  0  0  0  0
    9.6923    5.6468   22.7891 C   0  0  0  0  0  0  0  0  0  0  0  0
   11.7756   10.2554   20.8841 N   0  0  0  0  0  0  0  0  0  0  0  0
    8.9876   11.9370   19.8757 O   0  0  0  0  0  0  0  0  0  0  0  0
    6.0167    8.4478   21.1089 C   0  0  0  0  0  0  0  0  0  0  0  0
   11.0002   10.8890   20.0262 C   0  0  0  0  0  0  0  0  0  0  0  0
    2.1721    7.7393   20.0315 O   0  0  0  0  0  0  0  0  0  0  0  0
    9.1107   10.3880   21.3769 N   0  0  0  0  0  0  0  0  0  0  0  0
    3.9102    9.2008   20.3124 C   0  0  0  0  0  0  0  0  0  0  0  0
   12.7292   10.9960   18.4597 C   0  0  0  0  0  0  0  0  0  0  0  0
    9.3798    6.6793   23.6625 C   0  0  0  0  0  0  0  0  0  0  0  0
   14.7425   10.0739   19.0802 O   0  0  0  0  0  0  0  0  0  0  0  0
    5.1894    9.4673   20.7118 C   0  0  0  0  0  0  0  0  0  0  0  0
    7.3773    8.8224   21.4870 C   0  0  0  0  0  0  0  0  0  0  0  0
    8.4391    6.6439   21.0235 C   0  0  0  0  0  0  0  0  0  0  0  0
    9.6494   11.1353   20.4167 C   0  0  0  0  0  0  0  0  0  0  0  0
    8.1431    7.6829   21.9046 C   0  0  0  0  0  0  0  0  0  0  0  0
    7.7796   10.1314   21.5115 N   0  0  0  0  0  0  0  0  0  0  0  0
    9.2768    5.6183   21.4437 C   0  0  0  0  0  0  0  0  0  0  0  0
    8.6315    7.7322   23.1768 C   0  0  0  0  0  0  0  0  0  0  0  0
   13.0537    9.9821   20.5781 C   0  0  0  0  0  0  0  0  0  0  0  0
   10.3850    4.6575   23.2386 O   0  0  0  0  0  0  0  0  0  0  0  0
    4.2069    6.8450   20.7994 C   0  0  0  0  0  0  0  0  0  0  0  0
    3.0726   10.1043   19.8522 O   0  0  0  0  0  0  0  0  0  0  0  0
    5.5057    7.1196   21.1155 C   0  0  0  0  0  0  0  0  0  0  0  0
    7.0367   11.0229   21.9948 O   0  0  0  0  0  0  0  0  0  0  0  0
  1  8  4  0
  1 12  4  0
  2  9  1  0
  2 11  4  0
  2 25  4  0
  3 12  4  0
  3 14  1  0
  3 23  4  0
  4 13  4  0
  4 21  4  0
  4 24  1  0
  5  8  4  0
  5 23  4  0
  6 18  2  0
  7 15  4  0
  7 16  1  0
  7 27  4  0
  8 18  1  0
 10 18  1  0
 10 20  1  0
 11 15  4  0
 11 26  1  0
 13 22  4  0
 16 19  1  0
 16 20  2  0
 17 19  4  0
 17 21  4  0
 19 22  4  0
 20 28  1  0
 25 27  4  0
M  END
$$$$

 Created by Python create_sdf_string function

 28 30  0  0  0  0  0  0  0  0999 V2000
   11.4592   11.2893   18.7941 C   0  0  0  0  0  0  0  0  0  0  0  0
    3.4202    7.9009   20.3866 C   0  0  0  0  0  0  0  0  0  0  0  0
   13.5280   10.3522   19.3586 C   0  0  0  0  0  0  0  0  0  0  0  0
    9.6923    5.6468   22.7891 C   0  0  0  0  0  0  0  0  0  0  0  0
   11.7756   10.2554   20.8841 N   0  0  0  0  0  0  0  0  0  0  0  0
    8.9876   11.9370   19.8757 O   0  0  0  0  0  0  0  0  0  0  0  0
    6.0167    8.4478   21.1089 C   0  0  0  0  0  0  0  0  0  0  0  0
   11.0002   10.8890   20.0262 C   0  0  0  0  0  0  0  0  0  0  0  0
    2.1721    7.7393   20.0315 O   0  0  0  0  0  0  0  0  0  0  0  0
    9.1107   10.3880   21.3769 N   0  0  0  0  0  0  0  0  0  0  0  0
    3.9102    9.2008   20.3124 C   0  0  0  0  0  0  0  0  0  0  0  0
   12.7292   10.9960   18.4597 C   0  0  0  0  0  0  0  0  0  0  0  0
    9.3798    6.6793   23.6625 C   0  0  0  0  0  0  0  0  0  0  0  0
   14.7425   10.0739   19.0802 O   0  0  0  0  0  0  0  0  0  0  0  0
    5.1894    9.4673   20.7118 C   0  0  0  0  0  0  0  0  0  0  0  0
    7.3773    8.8224   21.4870 C   0  0  0  0  0  0  0  0  0  0  0  0
    8.4391    6.6439   21.0235 C   0  0  0  0  0  0  0  0  0  0  0  0
    9.6494   11.1353   20.4167 C   0  0  0  0  0  0  0  0  0  0  0  0
    8.1431    7.6829   21.9046 C   0  0  0  0  0  0  0  0  0  0  0  0
    7.7796   10.1314   21.5115 N   0  0  0  0  0  0  0  0  0  0  0  0
    9.2768    5.6183   21.4437 C   0  0  0  0  0  0  0  0  0  0  0  0
    8.6315    7.7322   23.1768 C   0  0  0  0  0  0  0  0  0  0  0  0
   13.0537    9.9821   20.5781 C   0  0  0  0  0  0  0  0  0  0  0  0
   10.3850    4.6575   23.2386 O   0  0  0  0  0  0  0  0  0  0  0  0
    4.2069    6.8450   20.7994 C   0  0  0  0  0  0  0  0  0  0  0  0
    3.0726   10.1043   19.8522 O   0  0  0  0  0  0  0  0  0  0  0  0
    5.5057    7.1196   21.1155 C   0  0  0  0  0  0  0  0  0  0  0  0
    7.0367   11.0229   21.9948 O   0  0  0  0  0  0  0  0  0  0  0  0
  1  8  4  0
  1 12  4  0
  2  9  1  0
  2 11  4  0
  2 25  4  0
  3 12  4  0
  3 14  1  0
  3 23  4  0
  4 13  4  0
  4 21  4  0
  4 24  1  0
  5  8  4  0
  5 23  4  0
  6 18  2  0
  7 15  4  0
  7 16  1  0
  7 27  4  0
  8 18  1  0
 10 18  1  0
 10 20  1  0
 11 15  4  0
 11 26  1  0
 13 22  4  0
 16 19  1  0
 16 20  2  0
 17 19  4  0
 17 21  4  0
 19 22  4  0
 20 28  1  0
 25 27  4  0
M  END
$$$$

 Created by Python create_sdf_string function

 28 30  0  0  0  0  0  0  0  0999 V2000
   11.4592   11.2893   18.7941 C   0  0  0  0  0  0  0  0  0  0  0  0
    3.4202    7.9009   20.3866 C   0  0  0  0  0  0  0  0  0  0  0  0
   13.5280   10.3522   19.3586 C   0  0  0  0  0  0  0  0  0  0  0  0
    9.6923    5.6468   22.7891 C   0  0  0  0  0  0  0  0  0  0  0  0
   11.7756   10.2554   20.8841 N   0  0  0  0  0  0  0  0  0  0  0  0
    8.9876   11.9370   19.8757 O   0  0  0  0  0  0  0  0  0  0  0  0
    6.0167    8.4478   21.1089 C   0  0  0  0  0  0  0  0  0  0  0  0
   11.0002   10.8890   20.0262 C   0  0  0  0  0  0  0  0  0  0  0  0
    2.1721    7.7393   20.0315 O   0  0  0  0  0  0  0  0  0  0  0  0
    9.1107   10.3880   21.3769 N   0  0  0  0  0  0  0  0  0  0  0  0
    3.9102    9.2008   20.3124 C   0  0  0  0  0  0  0  0  0  0  0  0
   12.7292   10.9960   18.4597 C   0  0  0  0  0  0  0  0  0  0  0  0
    9.3798    6.6793   23.6625 C   0  0  0  0  0  0  0  0  0  0  0  0
   14.7425   10.0739   19.0802 O   0  0  0  0  0  0  0  0  0  0  0  0
    5.1894    9.4673   20.7118 C   0  0  0  0  0  0  0  0  0  0  0  0
    7.3773    8.8224   21.4870 C   0  0  0  0  0  0  0  0  0  0  0  0
    8.4391    6.6439   21.0235 C   0  0  0  0  0  0  0  0  0  0  0  0
    9.6494   11.1353   20.4167 C   0  0  0  0  0  0  0  0  0  0  0  0
    8.1431    7.6829   21.9046 C   0  0  0  0  0  0  0  0  0  0  0  0
    7.7796   10.1314   21.5115 N   0  0  0  0  0  0  0  0  0  0  0  0
    9.2768    5.6183   21.4437 C   0  0  0  0  0  0  0  0  0  0  0  0
    8.6315    7.7322   23.1768 C   0  0  0  0  0  0  0  0  0  0  0  0
   13.0537    9.9821   20.5781 C   0  0  0  0  0  0  0  0  0  0  0  0
   10.3850    4.6575   23.2386 O   0  0  0  0  0  0  0  0  0  0  0  0
    4.2069    6.8450   20.7994 C   0  0  0  0  0  0  0  0  0  0  0  0
    3.0726   10.1043   19.8522 O   0  0  0  0  0  0  0  0  0  0  0  0
    5.5057    7.1196   21.1155 C   0  0  0  0  0  0  0  0  0  0  0  0
    7.0367   11.0229   21.9948 O   0  0  0  0  0  0  0  0  0  0  0  0
  1  8  4  0
  1 12  4  0
  2  9  1  0
  2 11  4  0
  2 25  4  0
  3 12  4  0
  3 14  1  0
  3 23  4  0
  4 13  4  0
  4 21  4  0
  4 24  1  0
  5  8  4  0
  5 23  4  0
  6 18  2  0
  7 15  4  0
  7 16  1  0
  7 27  4  0
  8 18  1  0
 10 18  1  0
 10 20  1  0
 11 15  4  0
 11 26  1  0
 13 22  4  0
 16 19  1  0
 16 20  2  0
 17 19  4  0
 17 21  4  0
 19 22  4  0
 20 28  1  0
 25 27  4  0
M  END
$$$$

 Created by Python create_sdf_string function

 28 30  0  0  0  0  0  0  0  0999 V2000
   11.4592   11.2893   18.7941 C   0  0  0  0  0  0  0  0  0  0  0  0
    3.4202    7.9009   20.3866 C   0  0  0  0  0  0  0  0  0  0  0  0
   13.5280   10.3522   19.3586 C   0  0  0  0  0  0  0  0  0  0  0  0
    9.6923    5.6468   22.7891 C   0  0  0  0  0  0  0  0  0  0  0  0
   11.7756   10.2554   20.8841 N   0  0  0  0  0  0  0  0  0  0  0  0
    8.9876   11.9370   19.8757 O   0  0  0  0  0  0  0  0  0  0  0  0
    6.0167    8.4478   21.1089 C   0  0  0  0  0  0  0  0  0  0  0  0
   11.0002   10.8890   20.0262 C   0  0  0  0  0  0  0  0  0  0  0  0
    2.1721    7.7393   20.0315 O   0  0  0  0  0  0  0  0  0  0  0  0
    9.1107   10.3880   21.3769 N   0  0  0  0  0  0  0  0  0  0  0  0
    3.9102    9.2008   20.3124 C   0  0  0  0  0  0  0  0  0  0  0  0
   12.7292   10.9960   18.4597 C   0  0  0  0  0  0  0  0  0  0  0  0
    9.3798    6.6793   23.6625 C   0  0  0  0  0  0  0  0  0  0  0  0
   14.7425   10.0739   19.0802 O   0  0  0  0  0  0  0  0  0  0  0  0
    5.1894    9.4673   20.7118 C   0  0  0  0  0  0  0  0  0  0  0  0
    7.3773    8.8224   21.4870 C   0  0  0  0  0  0  0  0  0  0  0  0
    8.4391    6.6439   21.0235 C   0  0  0  0  0  0  0  0  0  0  0  0
    9.6494   11.1353   20.4167 C   0  0  0  0  0  0  0  0  0  0  0  0
    8.1431    7.6829   21.9046 C   0  0  0  0  0  0  0  0  0  0  0  0
    7.7796   10.1314   21.5115 N   0  0  0  0  0  0  0  0  0  0  0  0
    9.2768    5.6183   21.4437 C   0  0  0  0  0  0  0  0  0  0  0  0
    8.6315    7.7322   23.1768 C   0  0  0  0  0  0  0  0  0  0  0  0
   13.0537    9.9821   20.5781 C   0  0  0  0  0  0  0  0  0  0  0  0
   10.3850    4.6575   23.2386 O   0  0  0  0  0  0  0  0  0  0  0  0
    4.2069    6.8450   20.7994 C   0  0  0  0  0  0  0  0  0  0  0  0
    3.0726   10.1043   19.8522 O   0  0  0  0  0  0  0  0  0  0  0  0
    5.5057    7.1196   21.1155 C   0  0  0  0  0  0  0  0  0  0  0  0
    7.0367   11.0229   21.9948 O   0  0  0  0  0  0  0  0  0  0  0  0
  1  8  4  0
  1 12  4  0
  2  9  1  0
  2 11  4  0
  2 25  4  0
  3 12  4  0
  3 14  1  0
  3 23  4  0
  4 13  4  0
  4 21  4  0
  4 24  1  0
  5  8  4  0
  5 23  4  0
  6 18  2  0
  7 15  4  0
  7 16  1  0
  7 27  4  0
  8 18  1  0
 10 18  1  0
 10 20  1  0
 11 15  4  0
 11 26  1  0
 13 22  4  0
 16 19  1  0
 16 20  2  0
 17 19  4  0
 17 21  4  0
 19 22  4  0
 20 28  1  0
 25 27  4  0
M  END
$$$$

 Created by Python create_sdf_string function

 28 30  0  0  0  0  0  0  0  0999 V2000
   11.4592   11.2893   18.7941 C   0  0  0  0  0  0  0  0  0  0  0  0
    3.4202    7.9009   20.3866 C   0  0  0  0  0  0  0  0  0  0  0  0
   13.5280   10.3522   19.3586 C   0  0  0  0  0  0  0  0  0  0  0  0
    9.6923    5.6468   22.7891 C   0  0  0  0  0  0  0  0  0  0  0  0
   11.7756   10.2554   20.8841 N   0  0  0  0  0  0  0  0  0  0  0  0
    8.9876   11.9370   19.8757 O   0  0  0  0  0  0  0  0  0  0  0  0
    6.0167    8.4478   21.1089 C   0  0  0  0  0  0  0  0  0  0  0  0
   11.0002   10.8890   20.0262 C   0  0  0  0  0  0  0  0  0  0  0  0
    2.1721    7.7393   20.0315 O   0  0  0  0  0  0  0  0  0  0  0  0
    9.1107   10.3880   21.3769 N   0  0  0  0  0  0  0  0  0  0  0  0
    3.9102    9.2008   20.3124 C   0  0  0  0  0  0  0  0  0  0  0  0
   12.7292   10.9960   18.4597 C   0  0  0  0  0  0  0  0  0  0  0  0
    9.3798    6.6793   23.6625 C   0  0  0  0  0  0  0  0  0  0  0  0
   14.7425   10.0739   19.0802 O   0  0  0  0  0  0  0  0  0  0  0  0
    5.1894    9.4673   20.7118 C   0  0  0  0  0  0  0  0  0  0  0  0
    7.3773    8.8224   21.4870 C   0  0  0  0  0  0  0  0  0  0  0  0
    8.4391    6.6439   21.0235 C   0  0  0  0  0  0  0  0  0  0  0  0
    9.6494   11.1353   20.4167 C   0  0  0  0  0  0  0  0  0  0  0  0
    8.1431    7.6829   21.9046 C   0  0  0  0  0  0  0  0  0  0  0  0
    7.7796   10.1314   21.5115 N   0  0  0  0  0  0  0  0  0  0  0  0
    9.2768    5.6183   21.4437 C   0  0  0  0  0  0  0  0  0  0  0  0
    8.6315    7.7322   23.1768 C   0  0  0  0  0  0  0  0  0  0  0  0
   13.0537    9.9821   20.5781 C   0  0  0  0  0  0  0  0  0  0  0  0
   10.3850    4.6575   23.2386 O   0  0  0  0  0  0  0  0  0  0  0  0
    4.2069    6.8450   20.7994 C   0  0  0  0  0  0  0  0  0  0  0  0
    3.0726   10.1043   19.8522 O   0  0  0  0  0  0  0  0  0  0  0  0
    5.5057    7.1196   21.1155 C   0  0  0  0  0  0  0  0  0  0  0  0
    7.0367   11.0229   21.9948 O   0  0  0  0  0  0  0  0  0  0  0  0
  1  8  4  0
  1 12  4  0
  2  9  1  0
  2 11  4  0
  2 25  4  0
  3 12  4  0
  3 14  1  0
  3 23  4  0
  4 13  4  0
  4 21  4  0
  4 24  1  0
  5  8  4  0
  5 23  4  0
  6 18  2  0
  7 15  4  0
  7 16  1  0
  7 27  4  0
  8 18  1  0
 10 18  1  0
 10 20  1  0
 11 15  4  0
 11 26  1  0
 13 22  4  0
 16 19  1  0
 16 20  2  0
 17 19  4  0
 17 21  4  0
 19 22  4  0
 20 28  1  0
 25 27  4  0
M  END
$$$$

 Created by Python create_sdf_string function

 28 30  0  0  0  0  0  0  0  0999 V2000
   11.4592   11.2893   18.7941 C   0  0  0  0  0  0  0  0  0  0  0  0
    3.4202    7.9009   20.3866 C   0  0  0  0  0  0  0  0  0  0  0  0
   13.5280   10.3522   19.3586 C   0  0  0  0  0  0  0  0  0  0  0  0
    9.6923    5.6468   22.7891 C   0  0  0  0  0  0  0  0  0  0  0  0
   11.7756   10.2554   20.8841 N   0  0  0  0  0  0  0  0  0  0  0  0
    8.9876   11.9370   19.8757 O   0  0  0  0  0  0  0  0  0  0  0  0
    6.0167    8.4478   21.1089 C   0  0  0  0  0  0  0  0  0  0  0  0
   11.0002   10.8890   20.0262 C   0  0  0  0  0  0  0  0  0  0  0  0
    2.1721    7.7393   20.0315 O   0  0  0  0  0  0  0  0  0  0  0  0
    9.1107   10.3880   21.3769 N   0  0  0  0  0  0  0  0  0  0  0  0
    3.9102    9.2008   20.3124 C   0  0  0  0  0  0  0  0  0  0  0  0
   12.7292   10.9960   18.4597 C   0  0  0  0  0  0  0  0  0  0  0  0
    9.3798    6.6793   23.6625 C   0  0  0  0  0  0  0  0  0  0  0  0
   14.7425   10.0739   19.0802 O   0  0  0  0  0  0  0  0  0  0  0  0
    5.1894    9.4673   20.7118 C   0  0  0  0  0  0  0  0  0  0  0  0
    7.3773    8.8224   21.4870 C   0  0  0  0  0  0  0  0  0  0  0  0
    8.4391    6.6439   21.0235 C   0  0  0  0  0  0  0  0  0  0  0  0
    9.6494   11.1353   20.4167 C   0  0  0  0  0  0  0  0  0  0  0  0
    8.1431    7.6829   21.9046 C   0  0  0  0  0  0  0  0  0  0  0  0
    7.7796   10.1314   21.5115 N   0  0  0  0  0  0  0  0  0  0  0  0
    9.2768    5.6183   21.4437 C   0  0  0  0  0  0  0  0  0  0  0  0
    8.6315    7.7322   23.1768 C   0  0  0  0  0  0  0  0  0  0  0  0
   13.0537    9.9821   20.5781 C   0  0  0  0  0  0  0  0  0  0  0  0
   10.3850    4.6575   23.2386 O   0  0  0  0  0  0  0  0  0  0  0  0
    4.2069    6.8450   20.7994 C   0  0  0  0  0  0  0  0  0  0  0  0
    3.0726   10.1043   19.8522 O   0  0  0  0  0  0  0  0  0  0  0  0
    5.5057    7.1196   21.1155 C   0  0  0  0  0  0  0  0  0  0  0  0
    7.0367   11.0229   21.9948 O   0  0  0  0  0  0  0  0  0  0  0  0
  1  8  4  0
  1 12  4  0
  2  9  1  0
  2 11  4  0
  2 25  4  0
  3 12  4  0
  3 14  1  0
  3 23  4  0
  4 13  4  0
  4 21  4  0
  4 24  1  0
  5  8  4  0
  5 23  4  0
  6 18  2  0
  7 15  4  0
  7 16  1  0
  7 27  4  0
  8 18  1  0
 10 18  1  0
 10 20  1  0
 11 15  4  0
 11 26  1  0
 13 22  4  0
 16 19  1  0
 16 20  2  0
 17 19  4  0
 17 21  4  0
 19 22  4  0
 20 28  1  0
 25 27  4  0
M  END
$$$$

 Created by Python create_sdf_string function

 28 30  0  0  0  0  0  0  0  0999 V2000
   11.4592   11.2893   18.7941 C   0  0  0  0  0  0  0  0  0  0  0  0
    3.4202    7.9009   20.3866 C   0  0  0  0  0  0  0  0  0  0  0  0
   13.5280   10.3522   19.3586 C   0  0  0  0  0  0  0  0  0  0  0  0
    9.6923    5.6468   22.7891 C   0  0  0  0  0  0  0  0  0  0  0  0
   11.7756   10.2554   20.8841 N   0  0  0  0  0  0  0  0  0  0  0  0
    8.9876   11.9370   19.8757 O   0  0  0  0  0  0  0  0  0  0  0  0
    6.0167    8.4478   21.1089 C   0  0  0  0  0  0  0  0  0  0  0  0
   11.0002   10.8890   20.0262 C   0  0  0  0  0  0  0  0  0  0  0  0
    2.1721    7.7393   20.0315 O   0  0  0  0  0  0  0  0  0  0  0  0
    9.1107   10.3880   21.3769 N   0  0  0  0  0  0  0  0  0  0  0  0
    3.9102    9.2008   20.3124 C   0  0  0  0  0  0  0  0  0  0  0  0
   12.7292   10.9960   18.4597 C   0  0  0  0  0  0  0  0  0  0  0  0
    9.3798    6.6793   23.6625 C   0  0  0  0  0  0  0  0  0  0  0  0
   14.7425   10.0739   19.0802 O   0  0  0  0  0  0  0  0  0  0  0  0
    5.1894    9.4673   20.7118 C   0  0  0  0  0  0  0  0  0  0  0  0
    7.3773    8.8224   21.4870 C   0  0  0  0  0  0  0  0  0  0  0  0
    8.4391    6.6439   21.0235 C   0  0  0  0  0  0  0  0  0  0  0  0
    9.6494   11.1353   20.4167 C   0  0  0  0  0  0  0  0  0  0  0  0
    8.1431    7.6829   21.9046 C   0  0  0  0  0  0  0  0  0  0  0  0
    7.7796   10.1314   21.5115 N   0  0  0  0  0  0  0  0  0  0  0  0
    9.2768    5.6183   21.4437 C   0  0  0  0  0  0  0  0  0  0  0  0
    8.6315    7.7322   23.1768 C   0  0  0  0  0  0  0  0  0  0  0  0
   13.0537    9.9821   20.5781 C   0  0  0  0  0  0  0  0  0  0  0  0
   10.3850    4.6575   23.2386 O   0  0  0  0  0  0  0  0  0  0  0  0
    4.2069    6.8450   20.7994 C   0  0  0  0  0  0  0  0  0  0  0  0
    3.0726   10.1043   19.8522 O   0  0  0  0  0  0  0  0  0  0  0  0
    5.5057    7.1196   21.1155 C   0  0  0  0  0  0  0  0  0  0  0  0
    7.0367   11.0229   21.9948 O   0  0  0  0  0  0  0  0  0  0  0  0
  1  8  4  0
  1 12  4  0
  2  9  1  0
  2 11  4  0
  2 25  4  0
  3 12  4  0
  3 14  1  0
  3 23  4  0
  4 13  4  0
  4 21  4  0
  4 24  1  0
  5  8  4  0
  5 23  4  0
  6 18  2  0
  7 15  4  0
  7 16  1  0
  7 27  4  0
  8 18  1  0
 10 18  1  0
 10 20  1  0
 11 15  4  0
 11 26  1  0
 13 22  4  0
 16 19  1  0
 16 20  2  0
 17 19  4  0
 17 21  4  0
 19 22  4  0
 20 28  1  0
 25 27  4  0
M  END
$$$$

 Created by Python create_sdf_string function

 28 30  0  0  0  0  0  0  0  0999 V2000
   11.4592   11.2893   18.7941 C   0  0  0  0  0  0  0  0  0  0  0  0
    3.4202    7.9009   20.3866 C   0  0  0  0  0  0  0  0  0  0  0  0
   13.5280   10.3522   19.3586 C   0  0  0  0  0  0  0  0  0  0  0  0
    9.6923    5.6468   22.7891 C   0  0  0  0  0  0  0  0  0  0  0  0
   11.7756   10.2554   20.8841 N   0  0  0  0  0  0  0  0  0  0  0  0
    8.9876   11.9370   19.8757 O   0  0  0  0  0  0  0  0  0  0  0  0
    6.0167    8.4478   21.1089 C   0  0  0  0  0  0  0  0  0  0  0  0
   11.0002   10.8890   20.0262 C   0  0  0  0  0  0  0  0  0  0  0  0
    2.1721    7.7393   20.0315 O   0  0  0  0  0  0  0  0  0  0  0  0
    9.1107   10.3880   21.3769 N   0  0  0  0  0  0  0  0  0  0  0  0
    3.9102    9.2008   20.3124 C   0  0  0  0  0  0  0  0  0  0  0  0
   12.7292   10.9960   18.4597 C   0  0  0  0  0  0  0  0  0  0  0  0
    9.3798    6.6793   23.6625 C   0  0  0  0  0  0  0  0  0  0  0  0
   14.7425   10.0739   19.0802 O   0  0  0  0  0  0  0  0  0  0  0  0
    5.1894    9.4673   20.7118 C   0  0  0  0  0  0  0  0  0  0  0  0
    7.3773    8.8224   21.4870 C   0  0  0  0  0  0  0  0  0  0  0  0
    8.4391    6.6439   21.0235 C   0  0  0  0  0  0  0  0  0  0  0  0
    9.6494   11.1353   20.4167 C   0  0  0  0  0  0  0  0  0  0  0  0
    8.1431    7.6829   21.9046 C   0  0  0  0  0  0  0  0  0  0  0  0
    7.7796   10.1314   21.5115 N   0  0  0  0  0  0  0  0  0  0  0  0
    9.2768    5.6183   21.4437 C   0  0  0  0  0  0  0  0  0  0  0  0
    8.6315    7.7322   23.1768 C   0  0  0  0  0  0  0  0  0  0  0  0
   13.0537    9.9821   20.5781 C   0  0  0  0  0  0  0  0  0  0  0  0
   10.3850    4.6575   23.2386 O   0  0  0  0  0  0  0  0  0  0  0  0
    4.2069    6.8450   20.7994 C   0  0  0  0  0  0  0  0  0  0  0  0
    3.0726   10.1043   19.8522 O   0  0  0  0  0  0  0  0  0  0  0  0
    5.5057    7.1196   21.1155 C   0  0  0  0  0  0  0  0  0  0  0  0
    7.0367   11.0229   21.9948 O   0  0  0  0  0  0  0  0  0  0  0  0
  1  8  4  0
  1 12  4  0
  2  9  1  0
  2 11  4  0
  2 25  4  0
  3 12  4  0
  3 14  1  0
  3 23  4  0
  4 13  4  0
  4 21  4  0
  4 24  1  0
  5  8  4  0
  5 23  4  0
  6 18  2  0
  7 15  4  0
  7 16  1  0
  7 27  4  0
  8 18  1  0
 10 18  1  0
 10 20  1  0
 11 15  4  0
 11 26  1  0
 13 22  4  0
 16 19  1  0
 16 20  2  0
 17 19  4  0
 17 21  4  0
 19 22  4  0
 20 28  1  0
 25 27  4  0
M  END
$$$$

 Created by Python create_sdf_string function

 28 30  0  0  0  0  0  0  0  0999 V2000
   11.4592   11.2893   18.7941 C   0  0  0  0  0  0  0  0  0  0  0  0
    3.4202    7.9009   20.3866 C   0  0  0  0  0  0  0  0  0  0  0  0
   13.5280   10.3522   19.3586 C   0  0  0  0  0  0  0  0  0  0  0  0
    9.6923    5.6468   22.7891 C   0  0  0  0  0  0  0  0  0  0  0  0
   11.7756   10.2554   20.8841 N   0  0  0  0  0  0  0  0  0  0  0  0
    8.9876   11.9370   19.8757 O   0  0  0  0  0  0  0  0  0  0  0  0
    6.0167    8.4478   21.1089 C   0  0  0  0  0  0  0  0  0  0  0  0
   11.0002   10.8890   20.0262 C   0  0  0  0  0  0  0  0  0  0  0  0
    2.1721    7.7393   20.0315 O   0  0  0  0  0  0  0  0  0  0  0  0
    9.1107   10.3880   21.3769 N   0  0  0  0  0  0  0  0  0  0  0  0
    3.9102    9.2008   20.3124 C   0  0  0  0  0  0  0  0  0  0  0  0
   12.7292   10.9960   18.4597 C   0  0  0  0  0  0  0  0  0  0  0  0
    9.3798    6.6793   23.6625 C   0  0  0  0  0  0  0  0  0  0  0  0
   14.7425   10.0739   19.0802 O   0  0  0  0  0  0  0  0  0  0  0  0
    5.1894    9.4673   20.7118 C   0  0  0  0  0  0  0  0  0  0  0  0
    7.3773    8.8224   21.4870 C   0  0  0  0  0  0  0  0  0  0  0  0
    8.4391    6.6439   21.0235 C   0  0  0  0  0  0  0  0  0  0  0  0
    9.6494   11.1353   20.4167 C   0  0  0  0  0  0  0  0  0  0  0  0
    8.1431    7.6829   21.9046 C   0  0  0  0  0  0  0  0  0  0  0  0
    7.7796   10.1314   21.5115 N   0  0  0  0  0  0  0  0  0  0  0  0
    9.2768    5.6183   21.4437 C   0  0  0  0  0  0  0  0  0  0  0  0
    8.6315    7.7322   23.1768 C   0  0  0  0  0  0  0  0  0  0  0  0
   13.0537    9.9821   20.5781 C   0  0  0  0  0  0  0  0  0  0  0  0
   10.3850    4.6575   23.2386 O   0  0  0  0  0  0  0  0  0  0  0  0
    4.2069    6.8450   20.7994 C   0  0  0  0  0  0  0  0  0  0  0  0
    3.0726   10.1043   19.8522 O   0  0  0  0  0  0  0  0  0  0  0  0
    5.5057    7.1196   21.1155 C   0  0  0  0  0  0  0  0  0  0  0  0
    7.0367   11.0229   21.9948 O   0  0  0  0  0  0  0  0  0  0  0  0
  1  8  4  0
  1 12  4  0
  2  9  1  0
  2 11  4  0
  2 25  4  0
  3 12  4  0
  3 14  1  0
  3 23  4  0
  4 13  4  0
  4 21  4  0
  4 24  1  0
  5  8  4  0
  5 23  4  0
  6 18  2  0
  7 15  4  0
  7 16  1  0
  7 27  4  0
  8 18  1  0
 10 18  1  0
 10 20  1  0
 11 15  4  0
 11 26  1  0
 13 22  4  0
 16 19  1  0
 16 20  2  0
 17 19  4  0
 17 21  4  0
 19 22  4  0
 20 28  1  0
 25 27  4  0
M  END
$$$$

 Created by Python create_sdf_string function

 28 30  0  0  0  0  0  0  0  0999 V2000
   11.4592   11.2893   18.7941 C   0  0  0  0  0  0  0  0  0  0  0  0
    3.4202    7.9009   20.3866 C   0  0  0  0  0  0  0  0  0  0  0  0
   13.5280   10.3522   19.3586 C   0  0  0  0  0  0  0  0  0  0  0  0
    9.6923    5.6468   22.7891 C   0  0  0  0  0  0  0  0  0  0  0  0
   11.7756   10.2554   20.8841 N   0  0  0  0  0  0  0  0  0  0  0  0
    8.9876   11.9370   19.8757 O   0  0  0  0  0  0  0  0  0  0  0  0
    6.0167    8.4478   21.1089 C   0  0  0  0  0  0  0  0  0  0  0  0
   11.0002   10.8890   20.0262 C   0  0  0  0  0  0  0  0  0  0  0  0
    2.1721    7.7393   20.0315 O   0  0  0  0  0  0  0  0  0  0  0  0
    9.1107   10.3880   21.3769 N   0  0  0  0  0  0  0  0  0  0  0  0
    3.9102    9.2008   20.3124 C   0  0  0  0  0  0  0  0  0  0  0  0
   12.7292   10.9960   18.4597 C   0  0  0  0  0  0  0  0  0  0  0  0
    9.3798    6.6793   23.6625 C   0  0  0  0  0  0  0  0  0  0  0  0
   14.7425   10.0739   19.0802 O   0  0  0  0  0  0  0  0  0  0  0  0
    5.1894    9.4673   20.7118 C   0  0  0  0  0  0  0  0  0  0  0  0
    7.3773    8.8224   21.4870 C   0  0  0  0  0  0  0  0  0  0  0  0
    8.4391    6.6439   21.0235 C   0  0  0  0  0  0  0  0  0  0  0  0
    9.6494   11.1353   20.4167 C   0  0  0  0  0  0  0  0  0  0  0  0
    8.1431    7.6829   21.9046 C   0  0  0  0  0  0  0  0  0  0  0  0
    7.7796   10.1314   21.5115 N   0  0  0  0  0  0  0  0  0  0  0  0
    9.2768    5.6183   21.4437 C   0  0  0  0  0  0  0  0  0  0  0  0
    8.6315    7.7322   23.1768 C   0  0  0  0  0  0  0  0  0  0  0  0
   13.0537    9.9821   20.5781 C   0  0  0  0  0  0  0  0  0  0  0  0
   10.3850    4.6575   23.2386 O   0  0  0  0  0  0  0  0  0  0  0  0
    4.2069    6.8450   20.7994 C   0  0  0  0  0  0  0  0  0  0  0  0
    3.0726   10.1043   19.8522 O   0  0  0  0  0  0  0  0  0  0  0  0
    5.5057    7.1196   21.1155 C   0  0  0  0  0  0  0  0  0  0  0  0
    7.0367   11.0229   21.9948 O   0  0  0  0  0  0  0  0  0  0  0  0
  1  8  4  0
  1 12  4  0
  2  9  1  0
  2 11  4  0
  2 25  4  0
  3 12  4  0
  3 14  1  0
  3 23  4  0
  4 13  4  0
  4 21  4  0
  4 24  1  0
  5  8  4  0
  5 23  4  0
  6 18  2  0
  7 15  4  0
  7 16  1  0
  7 27  4  0
  8 18  1  0
 10 18  1  0
 10 20  1  0
 11 15  4  0
 11 26  1  0
 13 22  4  0
 16 19  1  0
 16 20  2  0
 17 19  4  0
 17 21  4  0
 19 22  4  0
 20 28  1  0
 25 27  4  0
M  END
$$$$

 Created by Python create_sdf_string function

 28 30  0  0  0  0  0  0  0  0999 V2000
   11.4592   11.2893   18.7941 C   0  0  0  0  0  0  0  0  0  0  0  0
    3.4202    7.9009   20.3866 C   0  0  0  0  0  0  0  0  0  0  0  0
   13.5280   10.3522   19.3586 C   0  0  0  0  0  0  0  0  0  0  0  0
    9.6923    5.6468   22.7891 C   0  0  0  0  0  0  0  0  0  0  0  0
   11.7756   10.2554   20.8841 N   0  0  0  0  0  0  0  0  0  0  0  0
    8.9876   11.9370   19.8757 O   0  0  0  0  0  0  0  0  0  0  0  0
    6.0167    8.4478   21.1089 C   0  0  0  0  0  0  0  0  0  0  0  0
   11.0002   10.8890   20.0262 C   0  0  0  0  0  0  0  0  0  0  0  0
    2.1721    7.7393   20.0315 O   0  0  0  0  0  0  0  0  0  0  0  0
    9.1107   10.3880   21.3769 N   0  0  0  0  0  0  0  0  0  0  0  0
    3.9102    9.2008   20.3124 C   0  0  0  0  0  0  0  0  0  0  0  0
   12.7292   10.9960   18.4597 C   0  0  0  0  0  0  0  0  0  0  0  0
    9.3798    6.6793   23.6625 C   0  0  0  0  0  0  0  0  0  0  0  0
   14.7425   10.0739   19.0802 O   0  0  0  0  0  0  0  0  0  0  0  0
    5.1894    9.4673   20.7118 C   0  0  0  0  0  0  0  0  0  0  0  0
    7.3773    8.8224   21.4870 C   0  0  0  0  0  0  0  0  0  0  0  0
    8.4391    6.6439   21.0235 C   0  0  0  0  0  0  0  0  0  0  0  0
    9.6494   11.1353   20.4167 C   0  0  0  0  0  0  0  0  0  0  0  0
    8.1431    7.6829   21.9046 C   0  0  0  0  0  0  0  0  0  0  0  0
    7.7796   10.1314   21.5115 N   0  0  0  0  0  0  0  0  0  0  0  0
    9.2768    5.6183   21.4437 C   0  0  0  0  0  0  0  0  0  0  0  0
    8.6315    7.7322   23.1768 C   0  0  0  0  0  0  0  0  0  0  0  0
   13.0537    9.9821   20.5781 C   0  0  0  0  0  0  0  0  0  0  0  0
   10.3850    4.6575   23.2386 O   0  0  0  0  0  0  0  0  0  0  0  0
    4.2069    6.8450   20.7994 C   0  0  0  0  0  0  0  0  0  0  0  0
    3.0726   10.1043   19.8522 O   0  0  0  0  0  0  0  0  0  0  0  0
    5.5057    7.1196   21.1155 C   0  0  0  0  0  0  0  0  0  0  0  0
    7.0367   11.0229   21.9948 O   0  0  0  0  0  0  0  0  0  0  0  0
  1  8  4  0
  1 12  4  0
  2  9  1  0
  2 11  4  0
  2 25  4  0
  3 12  4  0
  3 14  1  0
  3 23  4  0
  4 13  4  0
  4 21  4  0
  4 24  1  0
  5  8  4  0
  5 23  4  0
  6 18  2  0
  7 15  4  0
  7 16  1  0
  7 27  4  0
  8 18  1  0
 10 18  1  0
 10 20  1  0
 11 15  4  0
 11 26  1  0
 13 22  4  0
 16 19  1  0
 16 20  2  0
 17 19  4  0
 17 21  4  0
 19 22  4  0
 20 28  1  0
 25 27  4  0
M  END
$$$$

 Created by Python create_sdf_string function

 28 30  0  0  0  0  0  0  0  0999 V2000
   11.4592   11.2893   18.7941 C   0  0  0  0  0  0  0  0  0  0  0  0
    3.4202    7.9009   20.3866 C   0  0  0  0  0  0  0  0  0  0  0  0
   13.5280   10.3522   19.3586 C   0  0  0  0  0  0  0  0  0  0  0  0
    9.6923    5.6468   22.7891 C   0  0  0  0  0  0  0  0  0  0  0  0
   11.7756   10.2554   20.8841 N   0  0  0  0  0  0  0  0  0  0  0  0
    8.9876   11.9370   19.8757 O   0  0  0  0  0  0  0  0  0  0  0  0
    6.0167    8.4478   21.1089 C   0  0  0  0  0  0  0  0  0  0  0  0
   11.0002   10.8890   20.0262 C   0  0  0  0  0  0  0  0  0  0  0  0
    2.1721    7.7393   20.0315 O   0  0  0  0  0  0  0  0  0  0  0  0
    9.1107   10.3880   21.3769 N   0  0  0  0  0  0  0  0  0  0  0  0
    3.9102    9.2008   20.3124 C   0  0  0  0  0  0  0  0  0  0  0  0
   12.7292   10.9960   18.4597 C   0  0  0  0  0  0  0  0  0  0  0  0
    9.3798    6.6793   23.6625 C   0  0  0  0  0  0  0  0  0  0  0  0
   14.7425   10.0739   19.0802 O   0  0  0  0  0  0  0  0  0  0  0  0
    5.1894    9.4673   20.7118 C   0  0  0  0  0  0  0  0  0  0  0  0
    7.3773    8.8224   21.4870 C   0  0  0  0  0  0  0  0  0  0  0  0
    8.4391    6.6439   21.0235 C   0  0  0  0  0  0  0  0  0  0  0  0
    9.6494   11.1353   20.4167 C   0  0  0  0  0  0  0  0  0  0  0  0
    8.1431    7.6829   21.9046 C   0  0  0  0  0  0  0  0  0  0  0  0
    7.7796   10.1314   21.5115 N   0  0  0  0  0  0  0  0  0  0  0  0
    9.2768    5.6183   21.4437 C   0  0  0  0  0  0  0  0  0  0  0  0
    8.6315    7.7322   23.1768 C   0  0  0  0  0  0  0  0  0  0  0  0
   13.0537    9.9821   20.5781 C   0  0  0  0  0  0  0  0  0  0  0  0
   10.3850    4.6575   23.2386 O   0  0  0  0  0  0  0  0  0  0  0  0
    4.2069    6.8450   20.7994 C   0  0  0  0  0  0  0  0  0  0  0  0
    3.0726   10.1043   19.8522 O   0  0  0  0  0  0  0  0  0  0  0  0
    5.5057    7.1196   21.1155 C   0  0  0  0  0  0  0  0  0  0  0  0
    7.0367   11.0229   21.9948 O   0  0  0  0  0  0  0  0  0  0  0  0
  1  8  4  0
  1 12  4  0
  2  9  1  0
  2 11  4  0
  2 25  4  0
  3 12  4  0
  3 14  1  0
  3 23  4  0
  4 13  4  0
  4 21  4  0
  4 24  1  0
  5  8  4  0
  5 23  4  0
  6 18  2  0
  7 15  4  0
  7 16  1  0
  7 27  4  0
  8 18  1  0
 10 18  1  0
 10 20  1  0
 11 15  4  0
 11 26  1  0
 13 22  4  0
 16 19  1  0
 16 20  2  0
 17 19  4  0
 17 21  4  0
 19 22  4  0
 20 28  1  0
 25 27  4  0
M  END
$$$$

 Created by Python create_sdf_string function

 28 30  0  0  0  0  0  0  0  0999 V2000
   11.4592   11.2893   18.7941 C   0  0  0  0  0  0  0  0  0  0  0  0
    3.4202    7.9009   20.3866 C   0  0  0  0  0  0  0  0  0  0  0  0
   13.5280   10.3522   19.3586 C   0  0  0  0  0  0  0  0  0  0  0  0
    9.6923    5.6468   22.7891 C   0  0  0  0  0  0  0  0  0  0  0  0
   11.7756   10.2554   20.8841 N   0  0  0  0  0  0  0  0  0  0  0  0
    8.9876   11.9370   19.8757 O   0  0  0  0  0  0  0  0  0  0  0  0
    6.0167    8.4478   21.1089 C   0  0  0  0  0  0  0  0  0  0  0  0
   11.0002   10.8890   20.0262 C   0  0  0  0  0  0  0  0  0  0  0  0
    2.1721    7.7393   20.0315 O   0  0  0  0  0  0  0  0  0  0  0  0
    9.1107   10.3880   21.3769 N   0  0  0  0  0  0  0  0  0  0  0  0
    3.9102    9.2008   20.3124 C   0  0  0  0  0  0  0  0  0  0  0  0
   12.7292   10.9960   18.4597 C   0  0  0  0  0  0  0  0  0  0  0  0
    9.3798    6.6793   23.6625 C   0  0  0  0  0  0  0  0  0  0  0  0
   14.7425   10.0739   19.0802 O   0  0  0  0  0  0  0  0  0  0  0  0
    5.1894    9.4673   20.7118 C   0  0  0  0  0  0  0  0  0  0  0  0
    7.3773    8.8224   21.4870 C   0  0  0  0  0  0  0  0  0  0  0  0
    8.4391    6.6439   21.0235 C   0  0  0  0  0  0  0  0  0  0  0  0
    9.6494   11.1353   20.4167 C   0  0  0  0  0  0  0  0  0  0  0  0
    8.1431    7.6829   21.9046 C   0  0  0  0  0  0  0  0  0  0  0  0
    7.7796   10.1314   21.5115 N   0  0  0  0  0  0  0  0  0  0  0  0
    9.2768    5.6183   21.4437 C   0  0  0  0  0  0  0  0  0  0  0  0
    8.6315    7.7322   23.1768 C   0  0  0  0  0  0  0  0  0  0  0  0
   13.0537    9.9821   20.5781 C   0  0  0  0  0  0  0  0  0  0  0  0
   10.3850    4.6575   23.2386 O   0  0  0  0  0  0  0  0  0  0  0  0
    4.2069    6.8450   20.7994 C   0  0  0  0  0  0  0  0  0  0  0  0
    3.0726   10.1043   19.8522 O   0  0  0  0  0  0  0  0  0  0  0  0
    5.5057    7.1196   21.1155 C   0  0  0  0  0  0  0  0  0  0  0  0
    7.0367   11.0229   21.9948 O   0  0  0  0  0  0  0  0  0  0  0  0
  1  8  4  0
  1 12  4  0
  2  9  1  0
  2 11  4  0
  2 25  4  0
  3 12  4  0
  3 14  1  0
  3 23  4  0
  4 13  4  0
  4 21  4  0
  4 24  1  0
  5  8  4  0
  5 23  4  0
  6 18  2  0
  7 15  4  0
  7 16  1  0
  7 27  4  0
  8 18  1  0
 10 18  1  0
 10 20  1  0
 11 15  4  0
 11 26  1  0
 13 22  4  0
 16 19  1  0
 16 20  2  0
 17 19  4  0
 17 21  4  0
 19 22  4  0
 20 28  1  0
 25 27  4  0
M  END
$$$$

 Created by Python create_sdf_string function

 28 30  0  0  0  0  0  0  0  0999 V2000
   11.4592   11.2893   18.7941 C   0  0  0  0  0  0  0  0  0  0  0  0
    3.4202    7.9009   20.3866 C   0  0  0  0  0  0  0  0  0  0  0  0
   13.5280   10.3522   19.3586 C   0  0  0  0  0  0  0  0  0  0  0  0
    9.6923    5.6468   22.7891 C   0  0  0  0  0  0  0  0  0  0  0  0
   11.7756   10.2554   20.8841 N   0  0  0  0  0  0  0  0  0  0  0  0
    8.9876   11.9370   19.8757 O   0  0  0  0  0  0  0  0  0  0  0  0
    6.0167    8.4478   21.1089 C   0  0  0  0  0  0  0  0  0  0  0  0
   11.0002   10.8890   20.0262 C   0  0  0  0  0  0  0  0  0  0  0  0
    2.1721    7.7393   20.0315 O   0  0  0  0  0  0  0  0  0  0  0  0
    9.1107   10.3880   21.3769 N   0  0  0  0  0  0  0  0  0  0  0  0
    3.9102    9.2008   20.3124 C   0  0  0  0  0  0  0  0  0  0  0  0
   12.7292   10.9960   18.4597 C   0  0  0  0  0  0  0  0  0  0  0  0
    9.3798    6.6793   23.6625 C   0  0  0  0  0  0  0  0  0  0  0  0
   14.7425   10.0739   19.0802 O   0  0  0  0  0  0  0  0  0  0  0  0
    5.1894    9.4673   20.7118 C   0  0  0  0  0  0  0  0  0  0  0  0
    7.3773    8.8224   21.4870 C   0  0  0  0  0  0  0  0  0  0  0  0
    8.4391    6.6439   21.0235 C   0  0  0  0  0  0  0  0  0  0  0  0
    9.6494   11.1353   20.4167 C   0  0  0  0  0  0  0  0  0  0  0  0
    8.1431    7.6829   21.9046 C   0  0  0  0  0  0  0  0  0  0  0  0
    7.7796   10.1314   21.5115 N   0  0  0  0  0  0  0  0  0  0  0  0
    9.2768    5.6183   21.4437 C   0  0  0  0  0  0  0  0  0  0  0  0
    8.6315    7.7322   23.1768 C   0  0  0  0  0  0  0  0  0  0  0  0
   13.0537    9.9821   20.5781 C   0  0  0  0  0  0  0  0  0  0  0  0
   10.3850    4.6575   23.2386 O   0  0  0  0  0  0  0  0  0  0  0  0
    4.2069    6.8450   20.7994 C   0  0  0  0  0  0  0  0  0  0  0  0
    3.0726   10.1043   19.8522 O   0  0  0  0  0  0  0  0  0  0  0  0
    5.5057    7.1196   21.1155 C   0  0  0  0  0  0  0  0  0  0  0  0
    7.0367   11.0229   21.9948 O   0  0  0  0  0  0  0  0  0  0  0  0
  1  8  4  0
  1 12  4  0
  2  9  1  0
  2 11  4  0
  2 25  4  0
  3 12  4  0
  3 14  1  0
  3 23  4  0
  4 13  4  0
  4 21  4  0
  4 24  1  0
  5  8  4  0
  5 23  4  0
  6 18  2  0
  7 15  4  0
  7 16  1  0
  7 27  4  0
  8 18  1  0
 10 18  1  0
 10 20  1  0
 11 15  4  0
 11 26  1  0
 13 22  4  0
 16 19  1  0
 16 20  2  0
 17 19  4  0
 17 21  4  0
 19 22  4  0
 20 28  1  0
 25 27  4  0
M  END
$$$$

 Created by Python create_sdf_string function

 28 30  0  0  0  0  0  0  0  0999 V2000
   11.4592   11.2893   18.7941 C   0  0  0  0  0  0  0  0  0  0  0  0
    3.4202    7.9009   20.3866 C   0  0  0  0  0  0  0  0  0  0  0  0
   13.5280   10.3522   19.3586 C   0  0  0  0  0  0  0  0  0  0  0  0
    9.6923    5.6468   22.7891 C   0  0  0  0  0  0  0  0  0  0  0  0
   11.7756   10.2554   20.8841 N   0  0  0  0  0  0  0  0  0  0  0  0
    8.9876   11.9370   19.8757 O   0  0  0  0  0  0  0  0  0  0  0  0
    6.0167    8.4478   21.1089 C   0  0  0  0  0  0  0  0  0  0  0  0
   11.0002   10.8890   20.0262 C   0  0  0  0  0  0  0  0  0  0  0  0
    2.1721    7.7393   20.0315 O   0  0  0  0  0  0  0  0  0  0  0  0
    9.1107   10.3880   21.3769 N   0  0  0  0  0  0  0  0  0  0  0  0
    3.9102    9.2008   20.3124 C   0  0  0  0  0  0  0  0  0  0  0  0
   12.7292   10.9960   18.4597 C   0  0  0  0  0  0  0  0  0  0  0  0
    9.3798    6.6793   23.6625 C   0  0  0  0  0  0  0  0  0  0  0  0
   14.7425   10.0739   19.0802 O   0  0  0  0  0  0  0  0  0  0  0  0
    5.1894    9.4673   20.7118 C   0  0  0  0  0  0  0  0  0  0  0  0
    7.3773    8.8224   21.4870 C   0  0  0  0  0  0  0  0  0  0  0  0
    8.4391    6.6439   21.0235 C   0  0  0  0  0  0  0  0  0  0  0  0
    9.6494   11.1353   20.4167 C   0  0  0  0  0  0  0  0  0  0  0  0
    8.1431    7.6829   21.9046 C   0  0  0  0  0  0  0  0  0  0  0  0
    7.7796   10.1314   21.5115 N   0  0  0  0  0  0  0  0  0  0  0  0
    9.2768    5.6183   21.4437 C   0  0  0  0  0  0  0  0  0  0  0  0
    8.6315    7.7322   23.1768 C   0  0  0  0  0  0  0  0  0  0  0  0
   13.0537    9.9821   20.5781 C   0  0  0  0  0  0  0  0  0  0  0  0
   10.3850    4.6575   23.2386 O   0  0  0  0  0  0  0  0  0  0  0  0
    4.2069    6.8450   20.7994 C   0  0  0  0  0  0  0  0  0  0  0  0
    3.0726   10.1043   19.8522 O   0  0  0  0  0  0  0  0  0  0  0  0
    5.5057    7.1196   21.1155 C   0  0  0  0  0  0  0  0  0  0  0  0
    7.0367   11.0229   21.9948 O   0  0  0  0  0  0  0  0  0  0  0  0
  1  8  4  0
  1 12  4  0
  2  9  1  0
  2 11  4  0
  2 25  4  0
  3 12  4  0
  3 14  1  0
  3 23  4  0
  4 13  4  0
  4 21  4  0
  4 24  1  0
  5  8  4  0
  5 23  4  0
  6 18  2  0
  7 15  4  0
  7 16  1  0
  7 27  4  0
  8 18  1  0
 10 18  1  0
 10 20  1  0
 11 15  4  0
 11 26  1  0
 13 22  4  0
 16 19  1  0
 16 20  2  0
 17 19  4  0
 17 21  4  0
 19 22  4  0
 20 28  1  0
 25 27  4  0
M  END
$$$$

 Created by Python create_sdf_string function

 28 30  0  0  0  0  0  0  0  0999 V2000
   11.4592   11.2893   18.7941 C   0  0  0  0  0  0  0  0  0  0  0  0
    3.4202    7.9009   20.3866 C   0  0  0  0  0  0  0  0  0  0  0  0
   13.5280   10.3522   19.3586 C   0  0  0  0  0  0  0  0  0  0  0  0
    9.6923    5.6468   22.7891 C   0  0  0  0  0  0  0  0  0  0  0  0
   11.7756   10.2554   20.8841 N   0  0  0  0  0  0  0  0  0  0  0  0
    8.9876   11.9370   19.8757 O   0  0  0  0  0  0  0  0  0  0  0  0
    6.0167    8.4478   21.1089 C   0  0  0  0  0  0  0  0  0  0  0  0
   11.0002   10.8890   20.0262 C   0  0  0  0  0  0  0  0  0  0  0  0
    2.1721    7.7393   20.0315 O   0  0  0  0  0  0  0  0  0  0  0  0
    9.1107   10.3880   21.3769 N   0  0  0  0  0  0  0  0  0  0  0  0
    3.9102    9.2008   20.3124 C   0  0  0  0  0  0  0  0  0  0  0  0
   12.7292   10.9960   18.4597 C   0  0  0  0  0  0  0  0  0  0  0  0
    9.3798    6.6793   23.6625 C   0  0  0  0  0  0  0  0  0  0  0  0
   14.7425   10.0739   19.0802 O   0  0  0  0  0  0  0  0  0  0  0  0
    5.1894    9.4673   20.7118 C   0  0  0  0  0  0  0  0  0  0  0  0
    7.3773    8.8224   21.4870 C   0  0  0  0  0  0  0  0  0  0  0  0
    8.4391    6.6439   21.0235 C   0  0  0  0  0  0  0  0  0  0  0  0
    9.6494   11.1353   20.4167 C   0  0  0  0  0  0  0  0  0  0  0  0
    8.1431    7.6829   21.9046 C   0  0  0  0  0  0  0  0  0  0  0  0
    7.7796   10.1314   21.5115 N   0  0  0  0  0  0  0  0  0  0  0  0
    9.2768    5.6183   21.4437 C   0  0  0  0  0  0  0  0  0  0  0  0
    8.6315    7.7322   23.1768 C   0  0  0  0  0  0  0  0  0  0  0  0
   13.0537    9.9821   20.5781 C   0  0  0  0  0  0  0  0  0  0  0  0
   10.3850    4.6575   23.2386 O   0  0  0  0  0  0  0  0  0  0  0  0
    4.2069    6.8450   20.7994 C   0  0  0  0  0  0  0  0  0  0  0  0
    3.0726   10.1043   19.8522 O   0  0  0  0  0  0  0  0  0  0  0  0
    5.5057    7.1196   21.1155 C   0  0  0  0  0  0  0  0  0  0  0  0
    7.0367   11.0229   21.9948 O   0  0  0  0  0  0  0  0  0  0  0  0
  1  8  4  0
  1 12  4  0
  2  9  1  0
  2 11  4  0
  2 25  4  0
  3 12  4  0
  3 14  1  0
  3 23  4  0
  4 13  4  0
  4 21  4  0
  4 24  1  0
  5  8  4  0
  5 23  4  0
  6 18  2  0
  7 15  4  0
  7 16  1  0
  7 27  4  0
  8 18  1  0
 10 18  1  0
 10 20  1  0
 11 15  4  0
 11 26  1  0
 13 22  4  0
 16 19  1  0
 16 20  2  0
 17 19  4  0
 17 21  4  0
 19 22  4  0
 20 28  1  0
 25 27  4  0
M  END
$$$$

 Created by Python create_sdf_string function

 28 30  0  0  0  0  0  0  0  0999 V2000
   11.4592   11.2893   18.7941 C   0  0  0  0  0  0  0  0  0  0  0  0
    3.4202    7.9009   20.3866 C   0  0  0  0  0  0  0  0  0  0  0  0
   13.5280   10.3522   19.3586 C   0  0  0  0  0  0  0  0  0  0  0  0
    9.6923    5.6468   22.7891 C   0  0  0  0  0  0  0  0  0  0  0  0
   11.7756   10.2554   20.8841 N   0  0  0  0  0  0  0  0  0  0  0  0
    8.9876   11.9370   19.8757 O   0  0  0  0  0  0  0  0  0  0  0  0
    6.0167    8.4478   21.1089 C   0  0  0  0  0  0  0  0  0  0  0  0
   11.0002   10.8890   20.0262 C   0  0  0  0  0  0  0  0  0  0  0  0
    2.1721    7.7393   20.0315 O   0  0  0  0  0  0  0  0  0  0  0  0
    9.1107   10.3880   21.3769 N   0  0  0  0  0  0  0  0  0  0  0  0
    3.9102    9.2008   20.3124 C   0  0  0  0  0  0  0  0  0  0  0  0
   12.7292   10.9960   18.4597 C   0  0  0  0  0  0  0  0  0  0  0  0
    9.3798    6.6793   23.6625 C   0  0  0  0  0  0  0  0  0  0  0  0
   14.7425   10.0739   19.0802 O   0  0  0  0  0  0  0  0  0  0  0  0
    5.1894    9.4673   20.7118 C   0  0  0  0  0  0  0  0  0  0  0  0
    7.3773    8.8224   21.4870 C   0  0  0  0  0  0  0  0  0  0  0  0
    8.4391    6.6439   21.0235 C   0  0  0  0  0  0  0  0  0  0  0  0
    9.6494   11.1353   20.4167 C   0  0  0  0  0  0  0  0  0  0  0  0
    8.1431    7.6829   21.9046 C   0  0  0  0  0  0  0  0  0  0  0  0
    7.7796   10.1314   21.5115 N   0  0  0  0  0  0  0  0  0  0  0  0
    9.2768    5.6183   21.4437 C   0  0  0  0  0  0  0  0  0  0  0  0
    8.6315    7.7322   23.1768 C   0  0  0  0  0  0  0  0  0  0  0  0
   13.0537    9.9821   20.5781 C   0  0  0  0  0  0  0  0  0  0  0  0
   10.3850    4.6575   23.2386 O   0  0  0  0  0  0  0  0  0  0  0  0
    4.2069    6.8450   20.7994 C   0  0  0  0  0  0  0  0  0  0  0  0
    3.0726   10.1043   19.8522 O   0  0  0  0  0  0  0  0  0  0  0  0
    5.5057    7.1196   21.1155 C   0  0  0  0  0  0  0  0  0  0  0  0
    7.0367   11.0229   21.9948 O   0  0  0  0  0  0  0  0  0  0  0  0
  1  8  4  0
  1 12  4  0
  2  9  1  0
  2 11  4  0
  2 25  4  0
  3 12  4  0
  3 14  1  0
  3 23  4  0
  4 13  4  0
  4 21  4  0
  4 24  1  0
  5  8  4  0
  5 23  4  0
  6 18  2  0
  7 15  4  0
  7 16  1  0
  7 27  4  0
  8 18  1  0
 10 18  1  0
 10 20  1  0
 11 15  4  0
 11 26  1  0
 13 22  4  0
 16 19  1  0
 16 20  2  0
 17 19  4  0
 17 21  4  0
 19 22  4  0
 20 28  1  0
 25 27  4  0
M  END
$$$$

 Created by Python create_sdf_string function

 28 30  0  0  0  0  0  0  0  0999 V2000
   11.4592   11.2893   18.7941 C   0  0  0  0  0  0  0  0  0  0  0  0
    3.4202    7.9009   20.3866 C   0  0  0  0  0  0  0  0  0  0  0  0
   13.5280   10.3522   19.3586 C   0  0  0  0  0  0  0  0  0  0  0  0
    9.6923    5.6468   22.7891 C   0  0  0  0  0  0  0  0  0  0  0  0
   11.7756   10.2554   20.8841 N   0  0  0  0  0  0  0  0  0  0  0  0
    8.9876   11.9370   19.8757 O   0  0  0  0  0  0  0  0  0  0  0  0
    6.0167    8.4478   21.1089 C   0  0  0  0  0  0  0  0  0  0  0  0
   11.0002   10.8890   20.0262 C   0  0  0  0  0  0  0  0  0  0  0  0
    2.1721    7.7393   20.0315 O   0  0  0  0  0  0  0  0  0  0  0  0
    9.1107   10.3880   21.3769 N   0  0  0  0  0  0  0  0  0  0  0  0
    3.9102    9.2008   20.3124 C   0  0  0  0  0  0  0  0  0  0  0  0
   12.7292   10.9960   18.4597 C   0  0  0  0  0  0  0  0  0  0  0  0
    9.3798    6.6793   23.6625 C   0  0  0  0  0  0  0  0  0  0  0  0
   14.7425   10.0739   19.0802 O   0  0  0  0  0  0  0  0  0  0  0  0
    5.1894    9.4673   20.7118 C   0  0  0  0  0  0  0  0  0  0  0  0
    7.3773    8.8224   21.4870 C   0  0  0  0  0  0  0  0  0  0  0  0
    8.4391    6.6439   21.0235 C   0  0  0  0  0  0  0  0  0  0  0  0
    9.6494   11.1353   20.4167 C   0  0  0  0  0  0  0  0  0  0  0  0
    8.1431    7.6829   21.9046 C   0  0  0  0  0  0  0  0  0  0  0  0
    7.7796   10.1314   21.5115 N   0  0  0  0  0  0  0  0  0  0  0  0
    9.2768    5.6183   21.4437 C   0  0  0  0  0  0  0  0  0  0  0  0
    8.6315    7.7322   23.1768 C   0  0  0  0  0  0  0  0  0  0  0  0
   13.0537    9.9821   20.5781 C   0  0  0  0  0  0  0  0  0  0  0  0
   10.3850    4.6575   23.2386 O   0  0  0  0  0  0  0  0  0  0  0  0
    4.2069    6.8450   20.7994 C   0  0  0  0  0  0  0  0  0  0  0  0
    3.0726   10.1043   19.8522 O   0  0  0  0  0  0  0  0  0  0  0  0
    5.5057    7.1196   21.1155 C   0  0  0  0  0  0  0  0  0  0  0  0
    7.0367   11.0229   21.9948 O   0  0  0  0  0  0  0  0  0  0  0  0
  1  8  4  0
  1 12  4  0
  2  9  1  0
  2 11  4  0
  2 25  4  0
  3 12  4  0
  3 14  1  0
  3 23  4  0
  4 13  4  0
  4 21  4  0
  4 24  1  0
  5  8  4  0
  5 23  4  0
  6 18  2  0
  7 15  4  0
  7 16  1  0
  7 27  4  0
  8 18  1  0
 10 18  1  0
 10 20  1  0
 11 15  4  0
 11 26  1  0
 13 22  4  0
 16 19  1  0
 16 20  2  0
 17 19  4  0
 17 21  4  0
 19 22  4  0
 20 28  1  0
 25 27  4  0
M  END
$$$$

 Created by Python create_sdf_string function

 28 30  0  0  0  0  0  0  0  0999 V2000
   11.4592   11.2893   18.7941 C   0  0  0  0  0  0  0  0  0  0  0  0
    3.4202    7.9009   20.3866 C   0  0  0  0  0  0  0  0  0  0  0  0
   13.5280   10.3522   19.3586 C   0  0  0  0  0  0  0  0  0  0  0  0
    9.6923    5.6468   22.7891 C   0  0  0  0  0  0  0  0  0  0  0  0
   11.7756   10.2554   20.8841 N   0  0  0  0  0  0  0  0  0  0  0  0
    8.9876   11.9370   19.8757 O   0  0  0  0  0  0  0  0  0  0  0  0
    6.0167    8.4478   21.1089 C   0  0  0  0  0  0  0  0  0  0  0  0
   11.0002   10.8890   20.0262 C   0  0  0  0  0  0  0  0  0  0  0  0
    2.1721    7.7393   20.0315 O   0  0  0  0  0  0  0  0  0  0  0  0
    9.1107   10.3880   21.3769 N   0  0  0  0  0  0  0  0  0  0  0  0
    3.9102    9.2008   20.3124 C   0  0  0  0  0  0  0  0  0  0  0  0
   12.7292   10.9960   18.4597 C   0  0  0  0  0  0  0  0  0  0  0  0
    9.3798    6.6793   23.6625 C   0  0  0  0  0  0  0  0  0  0  0  0
   14.7425   10.0739   19.0802 O   0  0  0  0  0  0  0  0  0  0  0  0
    5.1894    9.4673   20.7118 C   0  0  0  0  0  0  0  0  0  0  0  0
    7.3773    8.8224   21.4870 C   0  0  0  0  0  0  0  0  0  0  0  0
    8.4391    6.6439   21.0235 C   0  0  0  0  0  0  0  0  0  0  0  0
    9.6494   11.1353   20.4167 C   0  0  0  0  0  0  0  0  0  0  0  0
    8.1431    7.6829   21.9046 C   0  0  0  0  0  0  0  0  0  0  0  0
    7.7796   10.1314   21.5115 N   0  0  0  0  0  0  0  0  0  0  0  0
    9.2768    5.6183   21.4437 C   0  0  0  0  0  0  0  0  0  0  0  0
    8.6315    7.7322   23.1768 C   0  0  0  0  0  0  0  0  0  0  0  0
   13.0537    9.9821   20.5781 C   0  0  0  0  0  0  0  0  0  0  0  0
   10.3850    4.6575   23.2386 O   0  0  0  0  0  0  0  0  0  0  0  0
    4.2069    6.8450   20.7994 C   0  0  0  0  0  0  0  0  0  0  0  0
    3.0726   10.1043   19.8522 O   0  0  0  0  0  0  0  0  0  0  0  0
    5.5057    7.1196   21.1155 C   0  0  0  0  0  0  0  0  0  0  0  0
    7.0367   11.0229   21.9948 O   0  0  0  0  0  0  0  0  0  0  0  0
  1  8  4  0
  1 12  4  0
  2  9  1  0
  2 11  4  0
  2 25  4  0
  3 12  4  0
  3 14  1  0
  3 23  4  0
  4 13  4  0
  4 21  4  0
  4 24  1  0
  5  8  4  0
  5 23  4  0
  6 18  2  0
  7 15  4  0
  7 16  1  0
  7 27  4  0
  8 18  1  0
 10 18  1  0
 10 20  1  0
 11 15  4  0
 11 26  1  0
 13 22  4  0
 16 19  1  0
 16 20  2  0
 17 19  4  0
 17 21  4  0
 19 22  4  0
 20 28  1  0
 25 27  4  0
M  END
$$$$

 Created by Python create_sdf_string function

 28 30  0  0  0  0  0  0  0  0999 V2000
   11.4592   11.2893   18.7941 C   0  0  0  0  0  0  0  0  0  0  0  0
    3.4202    7.9009   20.3866 C   0  0  0  0  0  0  0  0  0  0  0  0
   13.5280   10.3522   19.3586 C   0  0  0  0  0  0  0  0  0  0  0  0
    9.6923    5.6468   22.7891 C   0  0  0  0  0  0  0  0  0  0  0  0
   11.7756   10.2554   20.8841 N   0  0  0  0  0  0  0  0  0  0  0  0
    8.9876   11.9370   19.8757 O   0  0  0  0  0  0  0  0  0  0  0  0
    6.0167    8.4478   21.1089 C   0  0  0  0  0  0  0  0  0  0  0  0
   11.0002   10.8890   20.0262 C   0  0  0  0  0  0  0  0  0  0  0  0
    2.1721    7.7393   20.0315 O   0  0  0  0  0  0  0  0  0  0  0  0
    9.1107   10.3880   21.3769 N   0  0  0  0  0  0  0  0  0  0  0  0
    3.9102    9.2008   20.3124 C   0  0  0  0  0  0  0  0  0  0  0  0
   12.7292   10.9960   18.4597 C   0  0  0  0  0  0  0  0  0  0  0  0
    9.3798    6.6793   23.6625 C   0  0  0  0  0  0  0  0  0  0  0  0
   14.7425   10.0739   19.0802 O   0  0  0  0  0  0  0  0  0  0  0  0
    5.1894    9.4673   20.7118 C   0  0  0  0  0  0  0  0  0  0  0  0
    7.3773    8.8224   21.4870 C   0  0  0  0  0  0  0  0  0  0  0  0
    8.4391    6.6439   21.0235 C   0  0  0  0  0  0  0  0  0  0  0  0
    9.6494   11.1353   20.4167 C   0  0  0  0  0  0  0  0  0  0  0  0
    8.1431    7.6829   21.9046 C   0  0  0  0  0  0  0  0  0  0  0  0
    7.7796   10.1314   21.5115 N   0  0  0  0  0  0  0  0  0  0  0  0
    9.2768    5.6183   21.4437 C   0  0  0  0  0  0  0  0  0  0  0  0
    8.6315    7.7322   23.1768 C   0  0  0  0  0  0  0  0  0  0  0  0
   13.0537    9.9821   20.5781 C   0  0  0  0  0  0  0  0  0  0  0  0
   10.3850    4.6575   23.2386 O   0  0  0  0  0  0  0  0  0  0  0  0
    4.2069    6.8450   20.7994 C   0  0  0  0  0  0  0  0  0  0  0  0
    3.0726   10.1043   19.8522 O   0  0  0  0  0  0  0  0  0  0  0  0
    5.5057    7.1196   21.1155 C   0  0  0  0  0  0  0  0  0  0  0  0
    7.0367   11.0229   21.9948 O   0  0  0  0  0  0  0  0  0  0  0  0
  1  8  4  0
  1 12  4  0
  2  9  1  0
  2 11  4  0
  2 25  4  0
  3 12  4  0
  3 14  1  0
  3 23  4  0
  4 13  4  0
  4 21  4  0
  4 24  1  0
  5  8  4  0
  5 23  4  0
  6 18  2  0
  7 15  4  0
  7 16  1  0
  7 27  4  0
  8 18  1  0
 10 18  1  0
 10 20  1  0
 11 15  4  0
 11 26  1  0
 13 22  4  0
 16 19  1  0
 16 20  2  0
 17 19  4  0
 17 21  4  0
 19 22  4  0
 20 28  1  0
 25 27  4  0
M  END
$$$$

 Created by Python create_sdf_string function

 28 30  0  0  0  0  0  0  0  0999 V2000
   11.4592   11.2893   18.7941 C   0  0  0  0  0  0  0  0  0  0  0  0
    3.4202    7.9009   20.3866 C   0  0  0  0  0  0  0  0  0  0  0  0
   13.5280   10.3522   19.3586 C   0  0  0  0  0  0  0  0  0  0  0  0
    9.6923    5.6468   22.7891 C   0  0  0  0  0  0  0  0  0  0  0  0
   11.7756   10.2554   20.8841 N   0  0  0  0  0  0  0  0  0  0  0  0
    8.9876   11.9370   19.8757 O   0  0  0  0  0  0  0  0  0  0  0  0
    6.0167    8.4478   21.1089 C   0  0  0  0  0  0  0  0  0  0  0  0
   11.0002   10.8890   20.0262 C   0  0  0  0  0  0  0  0  0  0  0  0
    2.1721    7.7393   20.0315 O   0  0  0  0  0  0  0  0  0  0  0  0
    9.1107   10.3880   21.3769 N   0  0  0  0  0  0  0  0  0  0  0  0
    3.9102    9.2008   20.3124 C   0  0  0  0  0  0  0  0  0  0  0  0
   12.7292   10.9960   18.4597 C   0  0  0  0  0  0  0  0  0  0  0  0
    9.3798    6.6793   23.6625 C   0  0  0  0  0  0  0  0  0  0  0  0
   14.7425   10.0739   19.0802 O   0  0  0  0  0  0  0  0  0  0  0  0
    5.1894    9.4673   20.7118 C   0  0  0  0  0  0  0  0  0  0  0  0
    7.3773    8.8224   21.4870 C   0  0  0  0  0  0  0  0  0  0  0  0
    8.4391    6.6439   21.0235 C   0  0  0  0  0  0  0  0  0  0  0  0
    9.6494   11.1353   20.4167 C   0  0  0  0  0  0  0  0  0  0  0  0
    8.1431    7.6829   21.9046 C   0  0  0  0  0  0  0  0  0  0  0  0
    7.7796   10.1314   21.5115 N   0  0  0  0  0  0  0  0  0  0  0  0
    9.2768    5.6183   21.4437 C   0  0  0  0  0  0  0  0  0  0  0  0
    8.6315    7.7322   23.1768 C   0  0  0  0  0  0  0  0  0  0  0  0
   13.0537    9.9821   20.5781 C   0  0  0  0  0  0  0  0  0  0  0  0
   10.3850    4.6575   23.2386 O   0  0  0  0  0  0  0  0  0  0  0  0
    4.2069    6.8450   20.7994 C   0  0  0  0  0  0  0  0  0  0  0  0
    3.0726   10.1043   19.8522 O   0  0  0  0  0  0  0  0  0  0  0  0
    5.5057    7.1196   21.1155 C   0  0  0  0  0  0  0  0  0  0  0  0
    7.0367   11.0229   21.9948 O   0  0  0  0  0  0  0  0  0  0  0  0
  1  8  4  0
  1 12  4  0
  2  9  1  0
  2 11  4  0
  2 25  4  0
  3 12  4  0
  3 14  1  0
  3 23  4  0
  4 13  4  0
  4 21  4  0
  4 24  1  0
  5  8  4  0
  5 23  4  0
  6 18  2  0
  7 15  4  0
  7 16  1  0
  7 27  4  0
  8 18  1  0
 10 18  1  0
 10 20  1  0
 11 15  4  0
 11 26  1  0
 13 22  4  0
 16 19  1  0
 16 20  2  0
 17 19  4  0
 17 21  4  0
 19 22  4  0
 20 28  1  0
 25 27  4  0
M  END
$$$$

 Created by Python create_sdf_string function

 28 30  0  0  0  0  0  0  0  0999 V2000
   11.4592   11.2893   18.7941 C   0  0  0  0  0  0  0  0  0  0  0  0
    3.4202    7.9009   20.3866 C   0  0  0  0  0  0  0  0  0  0  0  0
   13.5280   10.3522   19.3586 C   0  0  0  0  0  0  0  0  0  0  0  0
    9.6923    5.6468   22.7891 C   0  0  0  0  0  0  0  0  0  0  0  0
   11.7756   10.2554   20.8841 N   0  0  0  0  0  0  0  0  0  0  0  0
    8.9876   11.9370   19.8757 O   0  0  0  0  0  0  0  0  0  0  0  0
    6.0167    8.4478   21.1089 C   0  0  0  0  0  0  0  0  0  0  0  0
   11.0002   10.8890   20.0262 C   0  0  0  0  0  0  0  0  0  0  0  0
    2.1721    7.7393   20.0315 O   0  0  0  0  0  0  0  0  0  0  0  0
    9.1107   10.3880   21.3769 N   0  0  0  0  0  0  0  0  0  0  0  0
    3.9102    9.2008   20.3124 C   0  0  0  0  0  0  0  0  0  0  0  0
   12.7292   10.9960   18.4597 C   0  0  0  0  0  0  0  0  0  0  0  0
    9.3798    6.6793   23.6625 C   0  0  0  0  0  0  0  0  0  0  0  0
   14.7425   10.0739   19.0802 O   0  0  0  0  0  0  0  0  0  0  0  0
    5.1894    9.4673   20.7118 C   0  0  0  0  0  0  0  0  0  0  0  0
    7.3773    8.8224   21.4870 C   0  0  0  0  0  0  0  0  0  0  0  0
    8.4391    6.6439   21.0235 C   0  0  0  0  0  0  0  0  0  0  0  0
    9.6494   11.1353   20.4167 C   0  0  0  0  0  0  0  0  0  0  0  0
    8.1431    7.6829   21.9046 C   0  0  0  0  0  0  0  0  0  0  0  0
    7.7796   10.1314   21.5115 N   0  0  0  0  0  0  0  0  0  0  0  0
    9.2768    5.6183   21.4437 C   0  0  0  0  0  0  0  0  0  0  0  0
    8.6315    7.7322   23.1768 C   0  0  0  0  0  0  0  0  0  0  0  0
   13.0537    9.9821   20.5781 C   0  0  0  0  0  0  0  0  0  0  0  0
   10.3850    4.6575   23.2386 O   0  0  0  0  0  0  0  0  0  0  0  0
    4.2069    6.8450   20.7994 C   0  0  0  0  0  0  0  0  0  0  0  0
    3.0726   10.1043   19.8522 O   0  0  0  0  0  0  0  0  0  0  0  0
    5.5057    7.1196   21.1155 C   0  0  0  0  0  0  0  0  0  0  0  0
    7.0367   11.0229   21.9948 O   0  0  0  0  0  0  0  0  0  0  0  0
  1  8  4  0
  1 12  4  0
  2  9  1  0
  2 11  4  0
  2 25  4  0
  3 12  4  0
  3 14  1  0
  3 23  4  0
  4 13  4  0
  4 21  4  0
  4 24  1  0
  5  8  4  0
  5 23  4  0
  6 18  2  0
  7 15  4  0
  7 16  1  0
  7 27  4  0
  8 18  1  0
 10 18  1  0
 10 20  1  0
 11 15  4  0
 11 26  1  0
 13 22  4  0
 16 19  1  0
 16 20  2  0
 17 19  4  0
 17 21  4  0
 19 22  4  0
 20 28  1  0
 25 27  4  0
M  END
$$$$

 Created by Python create_sdf_string function

 28 30  0  0  0  0  0  0  0  0999 V2000
   11.4592   11.2893   18.7941 C   0  0  0  0  0  0  0  0  0  0  0  0
    3.4202    7.9009   20.3866 C   0  0  0  0  0  0  0  0  0  0  0  0
   13.5280   10.3522   19.3586 C   0  0  0  0  0  0  0  0  0  0  0  0
    9.6923    5.6468   22.7891 C   0  0  0  0  0  0  0  0  0  0  0  0
   11.7756   10.2554   20.8841 N   0  0  0  0  0  0  0  0  0  0  0  0
    8.9876   11.9370   19.8757 O   0  0  0  0  0  0  0  0  0  0  0  0
    6.0167    8.4478   21.1089 C   0  0  0  0  0  0  0  0  0  0  0  0
   11.0002   10.8890   20.0262 C   0  0  0  0  0  0  0  0  0  0  0  0
    2.1721    7.7393   20.0315 O   0  0  0  0  0  0  0  0  0  0  0  0
    9.1107   10.3880   21.3769 N   0  0  0  0  0  0  0  0  0  0  0  0
    3.9102    9.2008   20.3124 C   0  0  0  0  0  0  0  0  0  0  0  0
   12.7292   10.9960   18.4597 C   0  0  0  0  0  0  0  0  0  0  0  0
    9.3798    6.6793   23.6625 C   0  0  0  0  0  0  0  0  0  0  0  0
   14.7425   10.0739   19.0802 O   0  0  0  0  0  0  0  0  0  0  0  0
    5.1894    9.4673   20.7118 C   0  0  0  0  0  0  0  0  0  0  0  0
    7.3773    8.8224   21.4870 C   0  0  0  0  0  0  0  0  0  0  0  0
    8.4391    6.6439   21.0235 C   0  0  0  0  0  0  0  0  0  0  0  0
    9.6494   11.1353   20.4167 C   0  0  0  0  0  0  0  0  0  0  0  0
    8.1431    7.6829   21.9046 C   0  0  0  0  0  0  0  0  0  0  0  0
    7.7796   10.1314   21.5115 N   0  0  0  0  0  0  0  0  0  0  0  0
    9.2768    5.6183   21.4437 C   0  0  0  0  0  0  0  0  0  0  0  0
    8.6315    7.7322   23.1768 C   0  0  0  0  0  0  0  0  0  0  0  0
   13.0537    9.9821   20.5781 C   0  0  0  0  0  0  0  0  0  0  0  0
   10.3850    4.6575   23.2386 O   0  0  0  0  0  0  0  0  0  0  0  0
    4.2069    6.8450   20.7994 C   0  0  0  0  0  0  0  0  0  0  0  0
    3.0726   10.1043   19.8522 O   0  0  0  0  0  0  0  0  0  0  0  0
    5.5057    7.1196   21.1155 C   0  0  0  0  0  0  0  0  0  0  0  0
    7.0367   11.0229   21.9948 O   0  0  0  0  0  0  0  0  0  0  0  0
  1  8  4  0
  1 12  4  0
  2  9  1  0
  2 11  4  0
  2 25  4  0
  3 12  4  0
  3 14  1  0
  3 23  4  0
  4 13  4  0
  4 21  4  0
  4 24  1  0
  5  8  4  0
  5 23  4  0
  6 18  2  0
  7 15  4  0
  7 16  1  0
  7 27  4  0
  8 18  1  0
 10 18  1  0
 10 20  1  0
 11 15  4  0
 11 26  1  0
 13 22  4  0
 16 19  1  0
 16 20  2  0
 17 19  4  0
 17 21  4  0
 19 22  4  0
 20 28  1  0
 25 27  4  0
M  END
$$$$

 Created by Python create_sdf_string function

 28 30  0  0  0  0  0  0  0  0999 V2000
   11.4592   11.2893   18.7941 C   0  0  0  0  0  0  0  0  0  0  0  0
    3.4202    7.9009   20.3866 C   0  0  0  0  0  0  0  0  0  0  0  0
   13.5280   10.3522   19.3586 C   0  0  0  0  0  0  0  0  0  0  0  0
    9.6923    5.6468   22.7891 C   0  0  0  0  0  0  0  0  0  0  0  0
   11.7756   10.2554   20.8841 N   0  0  0  0  0  0  0  0  0  0  0  0
    8.9876   11.9370   19.8757 O   0  0  0  0  0  0  0  0  0  0  0  0
    6.0167    8.4478   21.1089 C   0  0  0  0  0  0  0  0  0  0  0  0
   11.0002   10.8890   20.0262 C   0  0  0  0  0  0  0  0  0  0  0  0
    2.1721    7.7393   20.0315 O   0  0  0  0  0  0  0  0  0  0  0  0
    9.1107   10.3880   21.3769 N   0  0  0  0  0  0  0  0  0  0  0  0
    3.9102    9.2008   20.3124 C   0  0  0  0  0  0  0  0  0  0  0  0
   12.7292   10.9960   18.4597 C   0  0  0  0  0  0  0  0  0  0  0  0
    9.3798    6.6793   23.6625 C   0  0  0  0  0  0  0  0  0  0  0  0
   14.7425   10.0739   19.0802 O   0  0  0  0  0  0  0  0  0  0  0  0
    5.1894    9.4673   20.7118 C   0  0  0  0  0  0  0  0  0  0  0  0
    7.3773    8.8224   21.4870 C   0  0  0  0  0  0  0  0  0  0  0  0
    8.4391    6.6439   21.0235 C   0  0  0  0  0  0  0  0  0  0  0  0
    9.6494   11.1353   20.4167 C   0  0  0  0  0  0  0  0  0  0  0  0
    8.1431    7.6829   21.9046 C   0  0  0  0  0  0  0  0  0  0  0  0
    7.7796   10.1314   21.5115 N   0  0  0  0  0  0  0  0  0  0  0  0
    9.2768    5.6183   21.4437 C   0  0  0  0  0  0  0  0  0  0  0  0
    8.6315    7.7322   23.1768 C   0  0  0  0  0  0  0  0  0  0  0  0
   13.0537    9.9821   20.5781 C   0  0  0  0  0  0  0  0  0  0  0  0
   10.3850    4.6575   23.2386 O   0  0  0  0  0  0  0  0  0  0  0  0
    4.2069    6.8450   20.7994 C   0  0  0  0  0  0  0  0  0  0  0  0
    3.0726   10.1043   19.8522 O   0  0  0  0  0  0  0  0  0  0  0  0
    5.5057    7.1196   21.1155 C   0  0  0  0  0  0  0  0  0  0  0  0
    7.0367   11.0229   21.9948 O   0  0  0  0  0  0  0  0  0  0  0  0
  1  8  4  0
  1 12  4  0
  2  9  1  0
  2 11  4  0
  2 25  4  0
  3 12  4  0
  3 14  1  0
  3 23  4  0
  4 13  4  0
  4 21  4  0
  4 24  1  0
  5  8  4  0
  5 23  4  0
  6 18  2  0
  7 15  4  0
  7 16  1  0
  7 27  4  0
  8 18  1  0
 10 18  1  0
 10 20  1  0
 11 15  4  0
 11 26  1  0
 13 22  4  0
 16 19  1  0
 16 20  2  0
 17 19  4  0
 17 21  4  0
 19 22  4  0
 20 28  1  0
 25 27  4  0
M  END
$$$$

 Created by Python create_sdf_string function

 28 30  0  0  0  0  0  0  0  0999 V2000
   11.4592   11.2893   18.7941 C   0  0  0  0  0  0  0  0  0  0  0  0
    3.4202    7.9009   20.3866 C   0  0  0  0  0  0  0  0  0  0  0  0
   13.5280   10.3522   19.3586 C   0  0  0  0  0  0  0  0  0  0  0  0
    9.6923    5.6468   22.7891 C   0  0  0  0  0  0  0  0  0  0  0  0
   11.7756   10.2554   20.8841 N   0  0  0  0  0  0  0  0  0  0  0  0
    8.9876   11.9370   19.8757 O   0  0  0  0  0  0  0  0  0  0  0  0
    6.0167    8.4478   21.1089 C   0  0  0  0  0  0  0  0  0  0  0  0
   11.0002   10.8890   20.0262 C   0  0  0  0  0  0  0  0  0  0  0  0
    2.1721    7.7393   20.0315 O   0  0  0  0  0  0  0  0  0  0  0  0
    9.1107   10.3880   21.3769 N   0  0  0  0  0  0  0  0  0  0  0  0
    3.9102    9.2008   20.3124 C   0  0  0  0  0  0  0  0  0  0  0  0
   12.7292   10.9960   18.4597 C   0  0  0  0  0  0  0  0  0  0  0  0
    9.3798    6.6793   23.6625 C   0  0  0  0  0  0  0  0  0  0  0  0
   14.7425   10.0739   19.0802 O   0  0  0  0  0  0  0  0  0  0  0  0
    5.1894    9.4673   20.7118 C   0  0  0  0  0  0  0  0  0  0  0  0
    7.3773    8.8224   21.4870 C   0  0  0  0  0  0  0  0  0  0  0  0
    8.4391    6.6439   21.0235 C   0  0  0  0  0  0  0  0  0  0  0  0
    9.6494   11.1353   20.4167 C   0  0  0  0  0  0  0  0  0  0  0  0
    8.1431    7.6829   21.9046 C   0  0  0  0  0  0  0  0  0  0  0  0
    7.7796   10.1314   21.5115 N   0  0  0  0  0  0  0  0  0  0  0  0
    9.2768    5.6183   21.4437 C   0  0  0  0  0  0  0  0  0  0  0  0
    8.6315    7.7322   23.1768 C   0  0  0  0  0  0  0  0  0  0  0  0
   13.0537    9.9821   20.5781 C   0  0  0  0  0  0  0  0  0  0  0  0
   10.3850    4.6575   23.2386 O   0  0  0  0  0  0  0  0  0  0  0  0
    4.2069    6.8450   20.7994 C   0  0  0  0  0  0  0  0  0  0  0  0
    3.0726   10.1043   19.8522 O   0  0  0  0  0  0  0  0  0  0  0  0
    5.5057    7.1196   21.1155 C   0  0  0  0  0  0  0  0  0  0  0  0
    7.0367   11.0229   21.9948 O   0  0  0  0  0  0  0  0  0  0  0  0
  1  8  4  0
  1 12  4  0
  2  9  1  0
  2 11  4  0
  2 25  4  0
  3 12  4  0
  3 14  1  0
  3 23  4  0
  4 13  4  0
  4 21  4  0
  4 24  1  0
  5  8  4  0
  5 23  4  0
  6 18  2  0
  7 15  4  0
  7 16  1  0
  7 27  4  0
  8 18  1  0
 10 18  1  0
 10 20  1  0
 11 15  4  0
 11 26  1  0
 13 22  4  0
 16 19  1  0
 16 20  2  0
 17 19  4  0
 17 21  4  0
 19 22  4  0
 20 28  1  0
 25 27  4  0
M  END
$$$$

 Created by Python create_sdf_string function

 28 30  0  0  0  0  0  0  0  0999 V2000
   11.4592   11.2893   18.7941 C   0  0  0  0  0  0  0  0  0  0  0  0
    3.4202    7.9009   20.3866 C   0  0  0  0  0  0  0  0  0  0  0  0
   13.5280   10.3522   19.3586 C   0  0  0  0  0  0  0  0  0  0  0  0
    9.6923    5.6468   22.7891 C   0  0  0  0  0  0  0  0  0  0  0  0
   11.7756   10.2554   20.8841 N   0  0  0  0  0  0  0  0  0  0  0  0
    8.9876   11.9370   19.8757 O   0  0  0  0  0  0  0  0  0  0  0  0
    6.0167    8.4478   21.1089 C   0  0  0  0  0  0  0  0  0  0  0  0
   11.0002   10.8890   20.0262 C   0  0  0  0  0  0  0  0  0  0  0  0
    2.1721    7.7393   20.0315 O   0  0  0  0  0  0  0  0  0  0  0  0
    9.1107   10.3880   21.3769 N   0  0  0  0  0  0  0  0  0  0  0  0
    3.9102    9.2008   20.3124 C   0  0  0  0  0  0  0  0  0  0  0  0
   12.7292   10.9960   18.4597 C   0  0  0  0  0  0  0  0  0  0  0  0
    9.3798    6.6793   23.6625 C   0  0  0  0  0  0  0  0  0  0  0  0
   14.7425   10.0739   19.0802 O   0  0  0  0  0  0  0  0  0  0  0  0
    5.1894    9.4673   20.7118 C   0  0  0  0  0  0  0  0  0  0  0  0
    7.3773    8.8224   21.4870 C   0  0  0  0  0  0  0  0  0  0  0  0
    8.4391    6.6439   21.0235 C   0  0  0  0  0  0  0  0  0  0  0  0
    9.6494   11.1353   20.4167 C   0  0  0  0  0  0  0  0  0  0  0  0
    8.1431    7.6829   21.9046 C   0  0  0  0  0  0  0  0  0  0  0  0
    7.7796   10.1314   21.5115 N   0  0  0  0  0  0  0  0  0  0  0  0
    9.2768    5.6183   21.4437 C   0  0  0  0  0  0  0  0  0  0  0  0
    8.6315    7.7322   23.1768 C   0  0  0  0  0  0  0  0  0  0  0  0
   13.0537    9.9821   20.5781 C   0  0  0  0  0  0  0  0  0  0  0  0
   10.3850    4.6575   23.2386 O   0  0  0  0  0  0  0  0  0  0  0  0
    4.2069    6.8450   20.7994 C   0  0  0  0  0  0  0  0  0  0  0  0
    3.0726   10.1043   19.8522 O   0  0  0  0  0  0  0  0  0  0  0  0
    5.5057    7.1196   21.1155 C   0  0  0  0  0  0  0  0  0  0  0  0
    7.0367   11.0229   21.9948 O   0  0  0  0  0  0  0  0  0  0  0  0
  1  8  4  0
  1 12  4  0
  2  9  1  0
  2 11  4  0
  2 25  4  0
  3 12  4  0
  3 14  1  0
  3 23  4  0
  4 13  4  0
  4 21  4  0
  4 24  1  0
  5  8  4  0
  5 23  4  0
  6 18  2  0
  7 15  4  0
  7 16  1  0
  7 27  4  0
  8 18  1  0
 10 18  1  0
 10 20  1  0
 11 15  4  0
 11 26  1  0
 13 22  4  0
 16 19  1  0
 16 20  2  0
 17 19  4  0
 17 21  4  0
 19 22  4  0
 20 28  1  0
 25 27  4  0
M  END
$$$$

 Created by Python create_sdf_string function

 28 30  0  0  0  0  0  0  0  0999 V2000
   11.4592   11.2893   18.7941 C   0  0  0  0  0  0  0  0  0  0  0  0
    3.4202    7.9009   20.3866 C   0  0  0  0  0  0  0  0  0  0  0  0
   13.5280   10.3522   19.3586 C   0  0  0  0  0  0  0  0  0  0  0  0
    9.6923    5.6468   22.7891 C   0  0  0  0  0  0  0  0  0  0  0  0
   11.7756   10.2554   20.8841 N   0  0  0  0  0  0  0  0  0  0  0  0
    8.9876   11.9370   19.8757 O   0  0  0  0  0  0  0  0  0  0  0  0
    6.0167    8.4478   21.1089 C   0  0  0  0  0  0  0  0  0  0  0  0
   11.0002   10.8890   20.0262 C   0  0  0  0  0  0  0  0  0  0  0  0
    2.1721    7.7393   20.0315 O   0  0  0  0  0  0  0  0  0  0  0  0
    9.1107   10.3880   21.3769 N   0  0  0  0  0  0  0  0  0  0  0  0
    3.9102    9.2008   20.3124 C   0  0  0  0  0  0  0  0  0  0  0  0
   12.7292   10.9960   18.4597 C   0  0  0  0  0  0  0  0  0  0  0  0
    9.3798    6.6793   23.6625 C   0  0  0  0  0  0  0  0  0  0  0  0
   14.7425   10.0739   19.0802 O   0  0  0  0  0  0  0  0  0  0  0  0
    5.1894    9.4673   20.7118 C   0  0  0  0  0  0  0  0  0  0  0  0
    7.3773    8.8224   21.4870 C   0  0  0  0  0  0  0  0  0  0  0  0
    8.4391    6.6439   21.0235 C   0  0  0  0  0  0  0  0  0  0  0  0
    9.6494   11.1353   20.4167 C   0  0  0  0  0  0  0  0  0  0  0  0
    8.1431    7.6829   21.9046 C   0  0  0  0  0  0  0  0  0  0  0  0
    7.7796   10.1314   21.5115 N   0  0  0  0  0  0  0  0  0  0  0  0
    9.2768    5.6183   21.4437 C   0  0  0  0  0  0  0  0  0  0  0  0
    8.6315    7.7322   23.1768 C   0  0  0  0  0  0  0  0  0  0  0  0
   13.0537    9.9821   20.5781 C   0  0  0  0  0  0  0  0  0  0  0  0
   10.3850    4.6575   23.2386 O   0  0  0  0  0  0  0  0  0  0  0  0
    4.2069    6.8450   20.7994 C   0  0  0  0  0  0  0  0  0  0  0  0
    3.0726   10.1043   19.8522 O   0  0  0  0  0  0  0  0  0  0  0  0
    5.5057    7.1196   21.1155 C   0  0  0  0  0  0  0  0  0  0  0  0
    7.0367   11.0229   21.9948 O   0  0  0  0  0  0  0  0  0  0  0  0
  1  8  4  0
  1 12  4  0
  2  9  1  0
  2 11  4  0
  2 25  4  0
  3 12  4  0
  3 14  1  0
  3 23  4  0
  4 13  4  0
  4 21  4  0
  4 24  1  0
  5  8  4  0
  5 23  4  0
  6 18  2  0
  7 15  4  0
  7 16  1  0
  7 27  4  0
  8 18  1  0
 10 18  1  0
 10 20  1  0
 11 15  4  0
 11 26  1  0
 13 22  4  0
 16 19  1  0
 16 20  2  0
 17 19  4  0
 17 21  4  0
 19 22  4  0
 20 28  1  0
 25 27  4  0
M  END
$$$$

 Created by Python create_sdf_string function

 28 30  0  0  0  0  0  0  0  0999 V2000
   11.4592   11.2893   18.7941 C   0  0  0  0  0  0  0  0  0  0  0  0
    3.4202    7.9009   20.3866 C   0  0  0  0  0  0  0  0  0  0  0  0
   13.5280   10.3522   19.3586 C   0  0  0  0  0  0  0  0  0  0  0  0
    9.6923    5.6468   22.7891 C   0  0  0  0  0  0  0  0  0  0  0  0
   11.7756   10.2554   20.8841 N   0  0  0  0  0  0  0  0  0  0  0  0
    8.9876   11.9370   19.8757 O   0  0  0  0  0  0  0  0  0  0  0  0
    6.0167    8.4478   21.1089 C   0  0  0  0  0  0  0  0  0  0  0  0
   11.0002   10.8890   20.0262 C   0  0  0  0  0  0  0  0  0  0  0  0
    2.1721    7.7393   20.0315 O   0  0  0  0  0  0  0  0  0  0  0  0
    9.1107   10.3880   21.3769 N   0  0  0  0  0  0  0  0  0  0  0  0
    3.9102    9.2008   20.3124 C   0  0  0  0  0  0  0  0  0  0  0  0
   12.7292   10.9960   18.4597 C   0  0  0  0  0  0  0  0  0  0  0  0
    9.3798    6.6793   23.6625 C   0  0  0  0  0  0  0  0  0  0  0  0
   14.7425   10.0739   19.0802 O   0  0  0  0  0  0  0  0  0  0  0  0
    5.1894    9.4673   20.7118 C   0  0  0  0  0  0  0  0  0  0  0  0
    7.3773    8.8224   21.4870 C   0  0  0  0  0  0  0  0  0  0  0  0
    8.4391    6.6439   21.0235 C   0  0  0  0  0  0  0  0  0  0  0  0
    9.6494   11.1353   20.4167 C   0  0  0  0  0  0  0  0  0  0  0  0
    8.1431    7.6829   21.9046 C   0  0  0  0  0  0  0  0  0  0  0  0
    7.7796   10.1314   21.5115 N   0  0  0  0  0  0  0  0  0  0  0  0
    9.2768    5.6183   21.4437 C   0  0  0  0  0  0  0  0  0  0  0  0
    8.6315    7.7322   23.1768 C   0  0  0  0  0  0  0  0  0  0  0  0
   13.0537    9.9821   20.5781 C   0  0  0  0  0  0  0  0  0  0  0  0
   10.3850    4.6575   23.2386 O   0  0  0  0  0  0  0  0  0  0  0  0
    4.2069    6.8450   20.7994 C   0  0  0  0  0  0  0  0  0  0  0  0
    3.0726   10.1043   19.8522 O   0  0  0  0  0  0  0  0  0  0  0  0
    5.5057    7.1196   21.1155 C   0  0  0  0  0  0  0  0  0  0  0  0
    7.0367   11.0229   21.9948 O   0  0  0  0  0  0  0  0  0  0  0  0
  1  8  4  0
  1 12  4  0
  2  9  1  0
  2 11  4  0
  2 25  4  0
  3 12  4  0
  3 14  1  0
  3 23  4  0
  4 13  4  0
  4 21  4  0
  4 24  1  0
  5  8  4  0
  5 23  4  0
  6 18  2  0
  7 15  4  0
  7 16  1  0
  7 27  4  0
  8 18  1  0
 10 18  1  0
 10 20  1  0
 11 15  4  0
 11 26  1  0
 13 22  4  0
 16 19  1  0
 16 20  2  0
 17 19  4  0
 17 21  4  0
 19 22  4  0
 20 28  1  0
 25 27  4  0
M  END
$$$$

 Created by Python create_sdf_string function

 28 30  0  0  0  0  0  0  0  0999 V2000
   11.4592   11.2893   18.7941 C   0  0  0  0  0  0  0  0  0  0  0  0
    3.4202    7.9009   20.3866 C   0  0  0  0  0  0  0  0  0  0  0  0
   13.5280   10.3522   19.3586 C   0  0  0  0  0  0  0  0  0  0  0  0
    9.6923    5.6468   22.7891 C   0  0  0  0  0  0  0  0  0  0  0  0
   11.7756   10.2554   20.8841 N   0  0  0  0  0  0  0  0  0  0  0  0
    8.9876   11.9370   19.8757 O   0  0  0  0  0  0  0  0  0  0  0  0
    6.0167    8.4478   21.1089 C   0  0  0  0  0  0  0  0  0  0  0  0
   11.0002   10.8890   20.0262 C   0  0  0  0  0  0  0  0  0  0  0  0
    2.1721    7.7393   20.0315 O   0  0  0  0  0  0  0  0  0  0  0  0
    9.1107   10.3880   21.3769 N   0  0  0  0  0  0  0  0  0  0  0  0
    3.9102    9.2008   20.3124 C   0  0  0  0  0  0  0  0  0  0  0  0
   12.7292   10.9960   18.4597 C   0  0  0  0  0  0  0  0  0  0  0  0
    9.3798    6.6793   23.6625 C   0  0  0  0  0  0  0  0  0  0  0  0
   14.7425   10.0739   19.0802 O   0  0  0  0  0  0  0  0  0  0  0  0
    5.1894    9.4673   20.7118 C   0  0  0  0  0  0  0  0  0  0  0  0
    7.3773    8.8224   21.4870 C   0  0  0  0  0  0  0  0  0  0  0  0
    8.4391    6.6439   21.0235 C   0  0  0  0  0  0  0  0  0  0  0  0
    9.6494   11.1353   20.4167 C   0  0  0  0  0  0  0  0  0  0  0  0
    8.1431    7.6829   21.9046 C   0  0  0  0  0  0  0  0  0  0  0  0
    7.7796   10.1314   21.5115 N   0  0  0  0  0  0  0  0  0  0  0  0
    9.2768    5.6183   21.4437 C   0  0  0  0  0  0  0  0  0  0  0  0
    8.6315    7.7322   23.1768 C   0  0  0  0  0  0  0  0  0  0  0  0
   13.0537    9.9821   20.5781 C   0  0  0  0  0  0  0  0  0  0  0  0
   10.3850    4.6575   23.2386 O   0  0  0  0  0  0  0  0  0  0  0  0
    4.2069    6.8450   20.7994 C   0  0  0  0  0  0  0  0  0  0  0  0
    3.0726   10.1043   19.8522 O   0  0  0  0  0  0  0  0  0  0  0  0
    5.5057    7.1196   21.1155 C   0  0  0  0  0  0  0  0  0  0  0  0
    7.0367   11.0229   21.9948 O   0  0  0  0  0  0  0  0  0  0  0  0
  1  8  4  0
  1 12  4  0
  2  9  1  0
  2 11  4  0
  2 25  4  0
  3 12  4  0
  3 14  1  0
  3 23  4  0
  4 13  4  0
  4 21  4  0
  4 24  1  0
  5  8  4  0
  5 23  4  0
  6 18  2  0
  7 15  4  0
  7 16  1  0
  7 27  4  0
  8 18  1  0
 10 18  1  0
 10 20  1  0
 11 15  4  0
 11 26  1  0
 13 22  4  0
 16 19  1  0
 16 20  2  0
 17 19  4  0
 17 21  4  0
 19 22  4  0
 20 28  1  0
 25 27  4  0
M  END
$$$$

 Created by Python create_sdf_string function

 28 30  0  0  0  0  0  0  0  0999 V2000
   11.4592   11.2893   18.7941 C   0  0  0  0  0  0  0  0  0  0  0  0
    3.4202    7.9009   20.3866 C   0  0  0  0  0  0  0  0  0  0  0  0
   13.5280   10.3522   19.3586 C   0  0  0  0  0  0  0  0  0  0  0  0
    9.6923    5.6468   22.7891 C   0  0  0  0  0  0  0  0  0  0  0  0
   11.7756   10.2554   20.8841 N   0  0  0  0  0  0  0  0  0  0  0  0
    8.9876   11.9370   19.8757 O   0  0  0  0  0  0  0  0  0  0  0  0
    6.0167    8.4478   21.1089 C   0  0  0  0  0  0  0  0  0  0  0  0
   11.0002   10.8890   20.0262 C   0  0  0  0  0  0  0  0  0  0  0  0
    2.1721    7.7393   20.0315 O   0  0  0  0  0  0  0  0  0  0  0  0
    9.1107   10.3880   21.3769 N   0  0  0  0  0  0  0  0  0  0  0  0
    3.9102    9.2008   20.3124 C   0  0  0  0  0  0  0  0  0  0  0  0
   12.7292   10.9960   18.4597 C   0  0  0  0  0  0  0  0  0  0  0  0
    9.3798    6.6793   23.6625 C   0  0  0  0  0  0  0  0  0  0  0  0
   14.7425   10.0739   19.0802 O   0  0  0  0  0  0  0  0  0  0  0  0
    5.1894    9.4673   20.7118 C   0  0  0  0  0  0  0  0  0  0  0  0
    7.3773    8.8224   21.4870 C   0  0  0  0  0  0  0  0  0  0  0  0
    8.4391    6.6439   21.0235 C   0  0  0  0  0  0  0  0  0  0  0  0
    9.6494   11.1353   20.4167 C   0  0  0  0  0  0  0  0  0  0  0  0
    8.1431    7.6829   21.9046 C   0  0  0  0  0  0  0  0  0  0  0  0
    7.7796   10.1314   21.5115 N   0  0  0  0  0  0  0  0  0  0  0  0
    9.2768    5.6183   21.4437 C   0  0  0  0  0  0  0  0  0  0  0  0
    8.6315    7.7322   23.1768 C   0  0  0  0  0  0  0  0  0  0  0  0
   13.0537    9.9821   20.5781 C   0  0  0  0  0  0  0  0  0  0  0  0
   10.3850    4.6575   23.2386 O   0  0  0  0  0  0  0  0  0  0  0  0
    4.2069    6.8450   20.7994 C   0  0  0  0  0  0  0  0  0  0  0  0
    3.0726   10.1043   19.8522 O   0  0  0  0  0  0  0  0  0  0  0  0
    5.5057    7.1196   21.1155 C   0  0  0  0  0  0  0  0  0  0  0  0
    7.0367   11.0229   21.9948 O   0  0  0  0  0  0  0  0  0  0  0  0
  1  8  4  0
  1 12  4  0
  2  9  1  0
  2 11  4  0
  2 25  4  0
  3 12  4  0
  3 14  1  0
  3 23  4  0
  4 13  4  0
  4 21  4  0
  4 24  1  0
  5  8  4  0
  5 23  4  0
  6 18  2  0
  7 15  4  0
  7 16  1  0
  7 27  4  0
  8 18  1  0
 10 18  1  0
 10 20  1  0
 11 15  4  0
 11 26  1  0
 13 22  4  0
 16 19  1  0
 16 20  2  0
 17 19  4  0
 17 21  4  0
 19 22  4  0
 20 28  1  0
 25 27  4  0
M  END
$$$$

 Created by Python create_sdf_string function

 28 30  0  0  0  0  0  0  0  0999 V2000
   11.4592   11.2893   18.7941 C   0  0  0  0  0  0  0  0  0  0  0  0
    3.4202    7.9009   20.3866 C   0  0  0  0  0  0  0  0  0  0  0  0
   13.5280   10.3522   19.3586 C   0  0  0  0  0  0  0  0  0  0  0  0
    9.6923    5.6468   22.7891 C   0  0  0  0  0  0  0  0  0  0  0  0
   11.7756   10.2554   20.8841 N   0  0  0  0  0  0  0  0  0  0  0  0
    8.9876   11.9370   19.8757 O   0  0  0  0  0  0  0  0  0  0  0  0
    6.0167    8.4478   21.1089 C   0  0  0  0  0  0  0  0  0  0  0  0
   11.0002   10.8890   20.0262 C   0  0  0  0  0  0  0  0  0  0  0  0
    2.1721    7.7393   20.0315 O   0  0  0  0  0  0  0  0  0  0  0  0
    9.1107   10.3880   21.3769 N   0  0  0  0  0  0  0  0  0  0  0  0
    3.9102    9.2008   20.3124 C   0  0  0  0  0  0  0  0  0  0  0  0
   12.7292   10.9960   18.4597 C   0  0  0  0  0  0  0  0  0  0  0  0
    9.3798    6.6793   23.6625 C   0  0  0  0  0  0  0  0  0  0  0  0
   14.7425   10.0739   19.0802 O   0  0  0  0  0  0  0  0  0  0  0  0
    5.1894    9.4673   20.7118 C   0  0  0  0  0  0  0  0  0  0  0  0
    7.3773    8.8224   21.4870 C   0  0  0  0  0  0  0  0  0  0  0  0
    8.4391    6.6439   21.0235 C   0  0  0  0  0  0  0  0  0  0  0  0
    9.6494   11.1353   20.4167 C   0  0  0  0  0  0  0  0  0  0  0  0
    8.1431    7.6829   21.9046 C   0  0  0  0  0  0  0  0  0  0  0  0
    7.7796   10.1314   21.5115 N   0  0  0  0  0  0  0  0  0  0  0  0
    9.2768    5.6183   21.4437 C   0  0  0  0  0  0  0  0  0  0  0  0
    8.6315    7.7322   23.1768 C   0  0  0  0  0  0  0  0  0  0  0  0
   13.0537    9.9821   20.5781 C   0  0  0  0  0  0  0  0  0  0  0  0
   10.3850    4.6575   23.2386 O   0  0  0  0  0  0  0  0  0  0  0  0
    4.2069    6.8450   20.7994 C   0  0  0  0  0  0  0  0  0  0  0  0
    3.0726   10.1043   19.8522 O   0  0  0  0  0  0  0  0  0  0  0  0
    5.5057    7.1196   21.1155 C   0  0  0  0  0  0  0  0  0  0  0  0
    7.0367   11.0229   21.9948 O   0  0  0  0  0  0  0  0  0  0  0  0
  1  8  4  0
  1 12  4  0
  2  9  1  0
  2 11  4  0
  2 25  4  0
  3 12  4  0
  3 14  1  0
  3 23  4  0
  4 13  4  0
  4 21  4  0
  4 24  1  0
  5  8  4  0
  5 23  4  0
  6 18  2  0
  7 15  4  0
  7 16  1  0
  7 27  4  0
  8 18  1  0
 10 18  1  0
 10 20  1  0
 11 15  4  0
 11 26  1  0
 13 22  4  0
 16 19  1  0
 16 20  2  0
 17 19  4  0
 17 21  4  0
 19 22  4  0
 20 28  1  0
 25 27  4  0
M  END
$$$$

 Created by Python create_sdf_string function

 28 30  0  0  0  0  0  0  0  0999 V2000
   11.4592   11.2893   18.7941 C   0  0  0  0  0  0  0  0  0  0  0  0
    3.4202    7.9009   20.3866 C   0  0  0  0  0  0  0  0  0  0  0  0
   13.5280   10.3522   19.3586 C   0  0  0  0  0  0  0  0  0  0  0  0
    9.6923    5.6468   22.7891 C   0  0  0  0  0  0  0  0  0  0  0  0
   11.7756   10.2554   20.8841 N   0  0  0  0  0  0  0  0  0  0  0  0
    8.9876   11.9370   19.8757 O   0  0  0  0  0  0  0  0  0  0  0  0
    6.0167    8.4478   21.1089 C   0  0  0  0  0  0  0  0  0  0  0  0
   11.0002   10.8890   20.0262 C   0  0  0  0  0  0  0  0  0  0  0  0
    2.1721    7.7393   20.0315 O   0  0  0  0  0  0  0  0  0  0  0  0
    9.1107   10.3880   21.3769 N   0  0  0  0  0  0  0  0  0  0  0  0
    3.9102    9.2008   20.3124 C   0  0  0  0  0  0  0  0  0  0  0  0
   12.7292   10.9960   18.4597 C   0  0  0  0  0  0  0  0  0  0  0  0
    9.3798    6.6793   23.6625 C   0  0  0  0  0  0  0  0  0  0  0  0
   14.7425   10.0739   19.0802 O   0  0  0  0  0  0  0  0  0  0  0  0
    5.1894    9.4673   20.7118 C   0  0  0  0  0  0  0  0  0  0  0  0
    7.3773    8.8224   21.4870 C   0  0  0  0  0  0  0  0  0  0  0  0
    8.4391    6.6439   21.0235 C   0  0  0  0  0  0  0  0  0  0  0  0
    9.6494   11.1353   20.4167 C   0  0  0  0  0  0  0  0  0  0  0  0
    8.1431    7.6829   21.9046 C   0  0  0  0  0  0  0  0  0  0  0  0
    7.7796   10.1314   21.5115 N   0  0  0  0  0  0  0  0  0  0  0  0
    9.2768    5.6183   21.4437 C   0  0  0  0  0  0  0  0  0  0  0  0
    8.6315    7.7322   23.1768 C   0  0  0  0  0  0  0  0  0  0  0  0
   13.0537    9.9821   20.5781 C   0  0  0  0  0  0  0  0  0  0  0  0
   10.3850    4.6575   23.2386 O   0  0  0  0  0  0  0  0  0  0  0  0
    4.2069    6.8450   20.7994 C   0  0  0  0  0  0  0  0  0  0  0  0
    3.0726   10.1043   19.8522 O   0  0  0  0  0  0  0  0  0  0  0  0
    5.5057    7.1196   21.1155 C   0  0  0  0  0  0  0  0  0  0  0  0
    7.0367   11.0229   21.9948 O   0  0  0  0  0  0  0  0  0  0  0  0
  1  8  4  0
  1 12  4  0
  2  9  1  0
  2 11  4  0
  2 25  4  0
  3 12  4  0
  3 14  1  0
  3 23  4  0
  4 13  4  0
  4 21  4  0
  4 24  1  0
  5  8  4  0
  5 23  4  0
  6 18  2  0
  7 15  4  0
  7 16  1  0
  7 27  4  0
  8 18  1  0
 10 18  1  0
 10 20  1  0
 11 15  4  0
 11 26  1  0
 13 22  4  0
 16 19  1  0
 16 20  2  0
 17 19  4  0
 17 21  4  0
 19 22  4  0
 20 28  1  0
 25 27  4  0
M  END
$$$$

 Created by Python create_sdf_string function

 28 30  0  0  0  0  0  0  0  0999 V2000
   11.4592   11.2893   18.7941 C   0  0  0  0  0  0  0  0  0  0  0  0
    3.4202    7.9009   20.3866 C   0  0  0  0  0  0  0  0  0  0  0  0
   13.5280   10.3522   19.3586 C   0  0  0  0  0  0  0  0  0  0  0  0
    9.6923    5.6468   22.7891 C   0  0  0  0  0  0  0  0  0  0  0  0
   11.7756   10.2554   20.8841 N   0  0  0  0  0  0  0  0  0  0  0  0
    8.9876   11.9370   19.8757 O   0  0  0  0  0  0  0  0  0  0  0  0
    6.0167    8.4478   21.1089 C   0  0  0  0  0  0  0  0  0  0  0  0
   11.0002   10.8890   20.0262 C   0  0  0  0  0  0  0  0  0  0  0  0
    2.1721    7.7393   20.0315 O   0  0  0  0  0  0  0  0  0  0  0  0
    9.1107   10.3880   21.3769 N   0  0  0  0  0  0  0  0  0  0  0  0
    3.9102    9.2008   20.3124 C   0  0  0  0  0  0  0  0  0  0  0  0
   12.7292   10.9960   18.4597 C   0  0  0  0  0  0  0  0  0  0  0  0
    9.3798    6.6793   23.6625 C   0  0  0  0  0  0  0  0  0  0  0  0
   14.7425   10.0739   19.0802 O   0  0  0  0  0  0  0  0  0  0  0  0
    5.1894    9.4673   20.7118 C   0  0  0  0  0  0  0  0  0  0  0  0
    7.3773    8.8224   21.4870 C   0  0  0  0  0  0  0  0  0  0  0  0
    8.4391    6.6439   21.0235 C   0  0  0  0  0  0  0  0  0  0  0  0
    9.6494   11.1353   20.4167 C   0  0  0  0  0  0  0  0  0  0  0  0
    8.1431    7.6829   21.9046 C   0  0  0  0  0  0  0  0  0  0  0  0
    7.7796   10.1314   21.5115 N   0  0  0  0  0  0  0  0  0  0  0  0
    9.2768    5.6183   21.4437 C   0  0  0  0  0  0  0  0  0  0  0  0
    8.6315    7.7322   23.1768 C   0  0  0  0  0  0  0  0  0  0  0  0
   13.0537    9.9821   20.5781 C   0  0  0  0  0  0  0  0  0  0  0  0
   10.3850    4.6575   23.2386 O   0  0  0  0  0  0  0  0  0  0  0  0
    4.2069    6.8450   20.7994 C   0  0  0  0  0  0  0  0  0  0  0  0
    3.0726   10.1043   19.8522 O   0  0  0  0  0  0  0  0  0  0  0  0
    5.5057    7.1196   21.1155 C   0  0  0  0  0  0  0  0  0  0  0  0
    7.0367   11.0229   21.9948 O   0  0  0  0  0  0  0  0  0  0  0  0
  1  8  4  0
  1 12  4  0
  2  9  1  0
  2 11  4  0
  2 25  4  0
  3 12  4  0
  3 14  1  0
  3 23  4  0
  4 13  4  0
  4 21  4  0
  4 24  1  0
  5  8  4  0
  5 23  4  0
  6 18  2  0
  7 15  4  0
  7 16  1  0
  7 27  4  0
  8 18  1  0
 10 18  1  0
 10 20  1  0
 11 15  4  0
 11 26  1  0
 13 22  4  0
 16 19  1  0
 16 20  2  0
 17 19  4  0
 17 21  4  0
 19 22  4  0
 20 28  1  0
 25 27  4  0
M  END
$$$$

 Created by Python create_sdf_string function

 28 30  0  0  0  0  0  0  0  0999 V2000
   11.4592   11.2893   18.7941 C   0  0  0  0  0  0  0  0  0  0  0  0
    3.4202    7.9009   20.3866 C   0  0  0  0  0  0  0  0  0  0  0  0
   13.5280   10.3522   19.3586 C   0  0  0  0  0  0  0  0  0  0  0  0
    9.6923    5.6468   22.7891 C   0  0  0  0  0  0  0  0  0  0  0  0
   11.7756   10.2554   20.8841 N   0  0  0  0  0  0  0  0  0  0  0  0
    8.9876   11.9370   19.8757 O   0  0  0  0  0  0  0  0  0  0  0  0
    6.0167    8.4478   21.1089 C   0  0  0  0  0  0  0  0  0  0  0  0
   11.0002   10.8890   20.0262 C   0  0  0  0  0  0  0  0  0  0  0  0
    2.1721    7.7393   20.0315 O   0  0  0  0  0  0  0  0  0  0  0  0
    9.1107   10.3880   21.3769 N   0  0  0  0  0  0  0  0  0  0  0  0
    3.9102    9.2008   20.3124 C   0  0  0  0  0  0  0  0  0  0  0  0
   12.7292   10.9960   18.4597 C   0  0  0  0  0  0  0  0  0  0  0  0
    9.3798    6.6793   23.6625 C   0  0  0  0  0  0  0  0  0  0  0  0
   14.7425   10.0739   19.0802 O   0  0  0  0  0  0  0  0  0  0  0  0
    5.1894    9.4673   20.7118 C   0  0  0  0  0  0  0  0  0  0  0  0
    7.3773    8.8224   21.4870 C   0  0  0  0  0  0  0  0  0  0  0  0
    8.4391    6.6439   21.0235 C   0  0  0  0  0  0  0  0  0  0  0  0
    9.6494   11.1353   20.4167 C   0  0  0  0  0  0  0  0  0  0  0  0
    8.1431    7.6829   21.9046 C   0  0  0  0  0  0  0  0  0  0  0  0
    7.7796   10.1314   21.5115 N   0  0  0  0  0  0  0  0  0  0  0  0
    9.2768    5.6183   21.4437 C   0  0  0  0  0  0  0  0  0  0  0  0
    8.6315    7.7322   23.1768 C   0  0  0  0  0  0  0  0  0  0  0  0
   13.0537    9.9821   20.5781 C   0  0  0  0  0  0  0  0  0  0  0  0
   10.3850    4.6575   23.2386 O   0  0  0  0  0  0  0  0  0  0  0  0
    4.2069    6.8450   20.7994 C   0  0  0  0  0  0  0  0  0  0  0  0
    3.0726   10.1043   19.8522 O   0  0  0  0  0  0  0  0  0  0  0  0
    5.5057    7.1196   21.1155 C   0  0  0  0  0  0  0  0  0  0  0  0
    7.0367   11.0229   21.9948 O   0  0  0  0  0  0  0  0  0  0  0  0
  1  8  4  0
  1 12  4  0
  2  9  1  0
  2 11  4  0
  2 25  4  0
  3 12  4  0
  3 14  1  0
  3 23  4  0
  4 13  4  0
  4 21  4  0
  4 24  1  0
  5  8  4  0
  5 23  4  0
  6 18  2  0
  7 15  4  0
  7 16  1  0
  7 27  4  0
  8 18  1  0
 10 18  1  0
 10 20  1  0
 11 15  4  0
 11 26  1  0
 13 22  4  0
 16 19  1  0
 16 20  2  0
 17 19  4  0
 17 21  4  0
 19 22  4  0
 20 28  1  0
 25 27  4  0
M  END
$$$$

 Created by Python create_sdf_string function

 28 30  0  0  0  0  0  0  0  0999 V2000
   11.4592   11.2893   18.7941 C   0  0  0  0  0  0  0  0  0  0  0  0
    3.4202    7.9009   20.3866 C   0  0  0  0  0  0  0  0  0  0  0  0
   13.5280   10.3522   19.3586 C   0  0  0  0  0  0  0  0  0  0  0  0
    9.6923    5.6468   22.7891 C   0  0  0  0  0  0  0  0  0  0  0  0
   11.7756   10.2554   20.8841 N   0  0  0  0  0  0  0  0  0  0  0  0
    8.9876   11.9370   19.8757 O   0  0  0  0  0  0  0  0  0  0  0  0
    6.0167    8.4478   21.1089 C   0  0  0  0  0  0  0  0  0  0  0  0
   11.0002   10.8890   20.0262 C   0  0  0  0  0  0  0  0  0  0  0  0
    2.1721    7.7393   20.0315 O   0  0  0  0  0  0  0  0  0  0  0  0
    9.1107   10.3880   21.3769 N   0  0  0  0  0  0  0  0  0  0  0  0
    3.9102    9.2008   20.3124 C   0  0  0  0  0  0  0  0  0  0  0  0
   12.7292   10.9960   18.4597 C   0  0  0  0  0  0  0  0  0  0  0  0
    9.3798    6.6793   23.6625 C   0  0  0  0  0  0  0  0  0  0  0  0
   14.7425   10.0739   19.0802 O   0  0  0  0  0  0  0  0  0  0  0  0
    5.1894    9.4673   20.7118 C   0  0  0  0  0  0  0  0  0  0  0  0
    7.3773    8.8224   21.4870 C   0  0  0  0  0  0  0  0  0  0  0  0
    8.4391    6.6439   21.0235 C   0  0  0  0  0  0  0  0  0  0  0  0
    9.6494   11.1353   20.4167 C   0  0  0  0  0  0  0  0  0  0  0  0
    8.1431    7.6829   21.9046 C   0  0  0  0  0  0  0  0  0  0  0  0
    7.7796   10.1314   21.5115 N   0  0  0  0  0  0  0  0  0  0  0  0
    9.2768    5.6183   21.4437 C   0  0  0  0  0  0  0  0  0  0  0  0
    8.6315    7.7322   23.1768 C   0  0  0  0  0  0  0  0  0  0  0  0
   13.0537    9.9821   20.5781 C   0  0  0  0  0  0  0  0  0  0  0  0
   10.3850    4.6575   23.2386 O   0  0  0  0  0  0  0  0  0  0  0  0
    4.2069    6.8450   20.7994 C   0  0  0  0  0  0  0  0  0  0  0  0
    3.0726   10.1043   19.8522 O   0  0  0  0  0  0  0  0  0  0  0  0
    5.5057    7.1196   21.1155 C   0  0  0  0  0  0  0  0  0  0  0  0
    7.0367   11.0229   21.9948 O   0  0  0  0  0  0  0  0  0  0  0  0
  1  8  4  0
  1 12  4  0
  2  9  1  0
  2 11  4  0
  2 25  4  0
  3 12  4  0
  3 14  1  0
  3 23  4  0
  4 13  4  0
  4 21  4  0
  4 24  1  0
  5  8  4  0
  5 23  4  0
  6 18  2  0
  7 15  4  0
  7 16  1  0
  7 27  4  0
  8 18  1  0
 10 18  1  0
 10 20  1  0
 11 15  4  0
 11 26  1  0
 13 22  4  0
 16 19  1  0
 16 20  2  0
 17 19  4  0
 17 21  4  0
 19 22  4  0
 20 28  1  0
 25 27  4  0
M  END
$$$$

 Created by Python create_sdf_string function

 28 30  0  0  0  0  0  0  0  0999 V2000
   11.4592   11.2893   18.7941 C   0  0  0  0  0  0  0  0  0  0  0  0
    3.4202    7.9009   20.3866 C   0  0  0  0  0  0  0  0  0  0  0  0
   13.5280   10.3522   19.3586 C   0  0  0  0  0  0  0  0  0  0  0  0
    9.6923    5.6468   22.7891 C   0  0  0  0  0  0  0  0  0  0  0  0
   11.7756   10.2554   20.8841 N   0  0  0  0  0  0  0  0  0  0  0  0
    8.9876   11.9370   19.8757 O   0  0  0  0  0  0  0  0  0  0  0  0
    6.0167    8.4478   21.1089 C   0  0  0  0  0  0  0  0  0  0  0  0
   11.0002   10.8890   20.0262 C   0  0  0  0  0  0  0  0  0  0  0  0
    2.1721    7.7393   20.0315 O   0  0  0  0  0  0  0  0  0  0  0  0
    9.1107   10.3880   21.3769 N   0  0  0  0  0  0  0  0  0  0  0  0
    3.9102    9.2008   20.3124 C   0  0  0  0  0  0  0  0  0  0  0  0
   12.7292   10.9960   18.4597 C   0  0  0  0  0  0  0  0  0  0  0  0
    9.3798    6.6793   23.6625 C   0  0  0  0  0  0  0  0  0  0  0  0
   14.7425   10.0739   19.0802 O   0  0  0  0  0  0  0  0  0  0  0  0
    5.1894    9.4673   20.7118 C   0  0  0  0  0  0  0  0  0  0  0  0
    7.3773    8.8224   21.4870 C   0  0  0  0  0  0  0  0  0  0  0  0
    8.4391    6.6439   21.0235 C   0  0  0  0  0  0  0  0  0  0  0  0
    9.6494   11.1353   20.4167 C   0  0  0  0  0  0  0  0  0  0  0  0
    8.1431    7.6829   21.9046 C   0  0  0  0  0  0  0  0  0  0  0  0
    7.7796   10.1314   21.5115 N   0  0  0  0  0  0  0  0  0  0  0  0
    9.2768    5.6183   21.4437 C   0  0  0  0  0  0  0  0  0  0  0  0
    8.6315    7.7322   23.1768 C   0  0  0  0  0  0  0  0  0  0  0  0
   13.0537    9.9821   20.5781 C   0  0  0  0  0  0  0  0  0  0  0  0
   10.3850    4.6575   23.2386 O   0  0  0  0  0  0  0  0  0  0  0  0
    4.2069    6.8450   20.7994 C   0  0  0  0  0  0  0  0  0  0  0  0
    3.0726   10.1043   19.8522 O   0  0  0  0  0  0  0  0  0  0  0  0
    5.5057    7.1196   21.1155 C   0  0  0  0  0  0  0  0  0  0  0  0
    7.0367   11.0229   21.9948 O   0  0  0  0  0  0  0  0  0  0  0  0
  1  8  4  0
  1 12  4  0
  2  9  1  0
  2 11  4  0
  2 25  4  0
  3 12  4  0
  3 14  1  0
  3 23  4  0
  4 13  4  0
  4 21  4  0
  4 24  1  0
  5  8  4  0
  5 23  4  0
  6 18  2  0
  7 15  4  0
  7 16  1  0
  7 27  4  0
  8 18  1  0
 10 18  1  0
 10 20  1  0
 11 15  4  0
 11 26  1  0
 13 22  4  0
 16 19  1  0
 16 20  2  0
 17 19  4  0
 17 21  4  0
 19 22  4  0
 20 28  1  0
 25 27  4  0
M  END
$$$$

 Created by Python create_sdf_string function

 28 30  0  0  0  0  0  0  0  0999 V2000
   11.4592   11.2893   18.7941 C   0  0  0  0  0  0  0  0  0  0  0  0
    3.4202    7.9009   20.3866 C   0  0  0  0  0  0  0  0  0  0  0  0
   13.5280   10.3522   19.3586 C   0  0  0  0  0  0  0  0  0  0  0  0
    9.6923    5.6468   22.7891 C   0  0  0  0  0  0  0  0  0  0  0  0
   11.7756   10.2554   20.8841 N   0  0  0  0  0  0  0  0  0  0  0  0
    8.9876   11.9370   19.8757 O   0  0  0  0  0  0  0  0  0  0  0  0
    6.0167    8.4478   21.1089 C   0  0  0  0  0  0  0  0  0  0  0  0
   11.0002   10.8890   20.0262 C   0  0  0  0  0  0  0  0  0  0  0  0
    2.1721    7.7393   20.0315 O   0  0  0  0  0  0  0  0  0  0  0  0
    9.1107   10.3880   21.3769 N   0  0  0  0  0  0  0  0  0  0  0  0
    3.9102    9.2008   20.3124 C   0  0  0  0  0  0  0  0  0  0  0  0
   12.7292   10.9960   18.4597 C   0  0  0  0  0  0  0  0  0  0  0  0
    9.3798    6.6793   23.6625 C   0  0  0  0  0  0  0  0  0  0  0  0
   14.7425   10.0739   19.0802 O   0  0  0  0  0  0  0  0  0  0  0  0
    5.1894    9.4673   20.7118 C   0  0  0  0  0  0  0  0  0  0  0  0
    7.3773    8.8224   21.4870 C   0  0  0  0  0  0  0  0  0  0  0  0
    8.4391    6.6439   21.0235 C   0  0  0  0  0  0  0  0  0  0  0  0
    9.6494   11.1353   20.4167 C   0  0  0  0  0  0  0  0  0  0  0  0
    8.1431    7.6829   21.9046 C   0  0  0  0  0  0  0  0  0  0  0  0
    7.7796   10.1314   21.5115 N   0  0  0  0  0  0  0  0  0  0  0  0
    9.2768    5.6183   21.4437 C   0  0  0  0  0  0  0  0  0  0  0  0
    8.6315    7.7322   23.1768 C   0  0  0  0  0  0  0  0  0  0  0  0
   13.0537    9.9821   20.5781 C   0  0  0  0  0  0  0  0  0  0  0  0
   10.3850    4.6575   23.2386 O   0  0  0  0  0  0  0  0  0  0  0  0
    4.2069    6.8450   20.7994 C   0  0  0  0  0  0  0  0  0  0  0  0
    3.0726   10.1043   19.8522 O   0  0  0  0  0  0  0  0  0  0  0  0
    5.5057    7.1196   21.1155 C   0  0  0  0  0  0  0  0  0  0  0  0
    7.0367   11.0229   21.9948 O   0  0  0  0  0  0  0  0  0  0  0  0
  1  8  4  0
  1 12  4  0
  2  9  1  0
  2 11  4  0
  2 25  4  0
  3 12  4  0
  3 14  1  0
  3 23  4  0
  4 13  4  0
  4 21  4  0
  4 24  1  0
  5  8  4  0
  5 23  4  0
  6 18  2  0
  7 15  4  0
  7 16  1  0
  7 27  4  0
  8 18  1  0
 10 18  1  0
 10 20  1  0
 11 15  4  0
 11 26  1  0
 13 22  4  0
 16 19  1  0
 16 20  2  0
 17 19  4  0
 17 21  4  0
 19 22  4  0
 20 28  1  0
 25 27  4  0
M  END
$$$$

 Created by Python create_sdf_string function

 28 30  0  0  0  0  0  0  0  0999 V2000
   11.4592   11.2893   18.7941 C   0  0  0  0  0  0  0  0  0  0  0  0
    3.4202    7.9009   20.3866 C   0  0  0  0  0  0  0  0  0  0  0  0
   13.5280   10.3522   19.3586 C   0  0  0  0  0  0  0  0  0  0  0  0
    9.6923    5.6468   22.7891 C   0  0  0  0  0  0  0  0  0  0  0  0
   11.7756   10.2554   20.8841 N   0  0  0  0  0  0  0  0  0  0  0  0
    8.9876   11.9370   19.8757 O   0  0  0  0  0  0  0  0  0  0  0  0
    6.0167    8.4478   21.1089 C   0  0  0  0  0  0  0  0  0  0  0  0
   11.0002   10.8890   20.0262 C   0  0  0  0  0  0  0  0  0  0  0  0
    2.1721    7.7393   20.0315 O   0  0  0  0  0  0  0  0  0  0  0  0
    9.1107   10.3880   21.3769 N   0  0  0  0  0  0  0  0  0  0  0  0
    3.9102    9.2008   20.3124 C   0  0  0  0  0  0  0  0  0  0  0  0
   12.7292   10.9960   18.4597 C   0  0  0  0  0  0  0  0  0  0  0  0
    9.3798    6.6793   23.6625 C   0  0  0  0  0  0  0  0  0  0  0  0
   14.7425   10.0739   19.0802 O   0  0  0  0  0  0  0  0  0  0  0  0
    5.1894    9.4673   20.7118 C   0  0  0  0  0  0  0  0  0  0  0  0
    7.3773    8.8224   21.4870 C   0  0  0  0  0  0  0  0  0  0  0  0
    8.4391    6.6439   21.0235 C   0  0  0  0  0  0  0  0  0  0  0  0
    9.6494   11.1353   20.4167 C   0  0  0  0  0  0  0  0  0  0  0  0
    8.1431    7.6829   21.9046 C   0  0  0  0  0  0  0  0  0  0  0  0
    7.7796   10.1314   21.5115 N   0  0  0  0  0  0  0  0  0  0  0  0
    9.2768    5.6183   21.4437 C   0  0  0  0  0  0  0  0  0  0  0  0
    8.6315    7.7322   23.1768 C   0  0  0  0  0  0  0  0  0  0  0  0
   13.0537    9.9821   20.5781 C   0  0  0  0  0  0  0  0  0  0  0  0
   10.3850    4.6575   23.2386 O   0  0  0  0  0  0  0  0  0  0  0  0
    4.2069    6.8450   20.7994 C   0  0  0  0  0  0  0  0  0  0  0  0
    3.0726   10.1043   19.8522 O   0  0  0  0  0  0  0  0  0  0  0  0
    5.5057    7.1196   21.1155 C   0  0  0  0  0  0  0  0  0  0  0  0
    7.0367   11.0229   21.9948 O   0  0  0  0  0  0  0  0  0  0  0  0
  1  8  4  0
  1 12  4  0
  2  9  1  0
  2 11  4  0
  2 25  4  0
  3 12  4  0
  3 14  1  0
  3 23  4  0
  4 13  4  0
  4 21  4  0
  4 24  1  0
  5  8  4  0
  5 23  4  0
  6 18  2  0
  7 15  4  0
  7 16  1  0
  7 27  4  0
  8 18  1  0
 10 18  1  0
 10 20  1  0
 11 15  4  0
 11 26  1  0
 13 22  4  0
 16 19  1  0
 16 20  2  0
 17 19  4  0
 17 21  4  0
 19 22  4  0
 20 28  1  0
 25 27  4  0
M  END
$$$$

 Created by Python create_sdf_string function

 28 30  0  0  0  0  0  0  0  0999 V2000
   11.4592   11.2893   18.7941 C   0  0  0  0  0  0  0  0  0  0  0  0
    3.4202    7.9009   20.3866 C   0  0  0  0  0  0  0  0  0  0  0  0
   13.5280   10.3522   19.3586 C   0  0  0  0  0  0  0  0  0  0  0  0
    9.6923    5.6468   22.7891 C   0  0  0  0  0  0  0  0  0  0  0  0
   11.7756   10.2554   20.8841 N   0  0  0  0  0  0  0  0  0  0  0  0
    8.9876   11.9370   19.8757 O   0  0  0  0  0  0  0  0  0  0  0  0
    6.0167    8.4478   21.1089 C   0  0  0  0  0  0  0  0  0  0  0  0
   11.0002   10.8890   20.0262 C   0  0  0  0  0  0  0  0  0  0  0  0
    2.1721    7.7393   20.0315 O   0  0  0  0  0  0  0  0  0  0  0  0
    9.1107   10.3880   21.3769 N   0  0  0  0  0  0  0  0  0  0  0  0
    3.9102    9.2008   20.3124 C   0  0  0  0  0  0  0  0  0  0  0  0
   12.7292   10.9960   18.4597 C   0  0  0  0  0  0  0  0  0  0  0  0
    9.3798    6.6793   23.6625 C   0  0  0  0  0  0  0  0  0  0  0  0
   14.7425   10.0739   19.0802 O   0  0  0  0  0  0  0  0  0  0  0  0
    5.1894    9.4673   20.7118 C   0  0  0  0  0  0  0  0  0  0  0  0
    7.3773    8.8224   21.4870 C   0  0  0  0  0  0  0  0  0  0  0  0
    8.4391    6.6439   21.0235 C   0  0  0  0  0  0  0  0  0  0  0  0
    9.6494   11.1353   20.4167 C   0  0  0  0  0  0  0  0  0  0  0  0
    8.1431    7.6829   21.9046 C   0  0  0  0  0  0  0  0  0  0  0  0
    7.7796   10.1314   21.5115 N   0  0  0  0  0  0  0  0  0  0  0  0
    9.2768    5.6183   21.4437 C   0  0  0  0  0  0  0  0  0  0  0  0
    8.6315    7.7322   23.1768 C   0  0  0  0  0  0  0  0  0  0  0  0
   13.0537    9.9821   20.5781 C   0  0  0  0  0  0  0  0  0  0  0  0
   10.3850    4.6575   23.2386 O   0  0  0  0  0  0  0  0  0  0  0  0
    4.2069    6.8450   20.7994 C   0  0  0  0  0  0  0  0  0  0  0  0
    3.0726   10.1043   19.8522 O   0  0  0  0  0  0  0  0  0  0  0  0
    5.5057    7.1196   21.1155 C   0  0  0  0  0  0  0  0  0  0  0  0
    7.0367   11.0229   21.9948 O   0  0  0  0  0  0  0  0  0  0  0  0
  1  8  4  0
  1 12  4  0
  2  9  1  0
  2 11  4  0
  2 25  4  0
  3 12  4  0
  3 14  1  0
  3 23  4  0
  4 13  4  0
  4 21  4  0
  4 24  1  0
  5  8  4  0
  5 23  4  0
  6 18  2  0
  7 15  4  0
  7 16  1  0
  7 27  4  0
  8 18  1  0
 10 18  1  0
 10 20  1  0
 11 15  4  0
 11 26  1  0
 13 22  4  0
 16 19  1  0
 16 20  2  0
 17 19  4  0
 17 21  4  0
 19 22  4  0
 20 28  1  0
 25 27  4  0
M  END
$$$$

 Created by Python create_sdf_string function

 28 30  0  0  0  0  0  0  0  0999 V2000
   11.4592   11.2893   18.7941 C   0  0  0  0  0  0  0  0  0  0  0  0
    3.4202    7.9009   20.3866 C   0  0  0  0  0  0  0  0  0  0  0  0
   13.5280   10.3522   19.3586 C   0  0  0  0  0  0  0  0  0  0  0  0
    9.6923    5.6468   22.7891 C   0  0  0  0  0  0  0  0  0  0  0  0
   11.7756   10.2554   20.8841 N   0  0  0  0  0  0  0  0  0  0  0  0
    8.9876   11.9370   19.8757 O   0  0  0  0  0  0  0  0  0  0  0  0
    6.0167    8.4478   21.1089 C   0  0  0  0  0  0  0  0  0  0  0  0
   11.0002   10.8890   20.0262 C   0  0  0  0  0  0  0  0  0  0  0  0
    2.1721    7.7393   20.0315 O   0  0  0  0  0  0  0  0  0  0  0  0
    9.1107   10.3880   21.3769 N   0  0  0  0  0  0  0  0  0  0  0  0
    3.9102    9.2008   20.3124 C   0  0  0  0  0  0  0  0  0  0  0  0
   12.7292   10.9960   18.4597 C   0  0  0  0  0  0  0  0  0  0  0  0
    9.3798    6.6793   23.6625 C   0  0  0  0  0  0  0  0  0  0  0  0
   14.7425   10.0739   19.0802 O   0  0  0  0  0  0  0  0  0  0  0  0
    5.1894    9.4673   20.7118 C   0  0  0  0  0  0  0  0  0  0  0  0
    7.3773    8.8224   21.4870 C   0  0  0  0  0  0  0  0  0  0  0  0
    8.4391    6.6439   21.0235 C   0  0  0  0  0  0  0  0  0  0  0  0
    9.6494   11.1353   20.4167 C   0  0  0  0  0  0  0  0  0  0  0  0
    8.1431    7.6829   21.9046 C   0  0  0  0  0  0  0  0  0  0  0  0
    7.7796   10.1314   21.5115 N   0  0  0  0  0  0  0  0  0  0  0  0
    9.2768    5.6183   21.4437 C   0  0  0  0  0  0  0  0  0  0  0  0
    8.6315    7.7322   23.1768 C   0  0  0  0  0  0  0  0  0  0  0  0
   13.0537    9.9821   20.5781 C   0  0  0  0  0  0  0  0  0  0  0  0
   10.3850    4.6575   23.2386 O   0  0  0  0  0  0  0  0  0  0  0  0
    4.2069    6.8450   20.7994 C   0  0  0  0  0  0  0  0  0  0  0  0
    3.0726   10.1043   19.8522 O   0  0  0  0  0  0  0  0  0  0  0  0
    5.5057    7.1196   21.1155 C   0  0  0  0  0  0  0  0  0  0  0  0
    7.0367   11.0229   21.9948 O   0  0  0  0  0  0  0  0  0  0  0  0
  1  8  4  0
  1 12  4  0
  2  9  1  0
  2 11  4  0
  2 25  4  0
  3 12  4  0
  3 14  1  0
  3 23  4  0
  4 13  4  0
  4 21  4  0
  4 24  1  0
  5  8  4  0
  5 23  4  0
  6 18  2  0
  7 15  4  0
  7 16  1  0
  7 27  4  0
  8 18  1  0
 10 18  1  0
 10 20  1  0
 11 15  4  0
 11 26  1  0
 13 22  4  0
 16 19  1  0
 16 20  2  0
 17 19  4  0
 17 21  4  0
 19 22  4  0
 20 28  1  0
 25 27  4  0
M  END
$$$$

 Created by Python create_sdf_string function

 28 30  0  0  0  0  0  0  0  0999 V2000
   11.4592   11.2893   18.7941 C   0  0  0  0  0  0  0  0  0  0  0  0
    3.4202    7.9009   20.3866 C   0  0  0  0  0  0  0  0  0  0  0  0
   13.5280   10.3522   19.3586 C   0  0  0  0  0  0  0  0  0  0  0  0
    9.6923    5.6468   22.7891 C   0  0  0  0  0  0  0  0  0  0  0  0
   11.7756   10.2554   20.8841 N   0  0  0  0  0  0  0  0  0  0  0  0
    8.9876   11.9370   19.8757 O   0  0  0  0  0  0  0  0  0  0  0  0
    6.0167    8.4478   21.1089 C   0  0  0  0  0  0  0  0  0  0  0  0
   11.0002   10.8890   20.0262 C   0  0  0  0  0  0  0  0  0  0  0  0
    2.1721    7.7393   20.0315 O   0  0  0  0  0  0  0  0  0  0  0  0
    9.1107   10.3880   21.3769 N   0  0  0  0  0  0  0  0  0  0  0  0
    3.9102    9.2008   20.3124 C   0  0  0  0  0  0  0  0  0  0  0  0
   12.7292   10.9960   18.4597 C   0  0  0  0  0  0  0  0  0  0  0  0
    9.3798    6.6793   23.6625 C   0  0  0  0  0  0  0  0  0  0  0  0
   14.7425   10.0739   19.0802 O   0  0  0  0  0  0  0  0  0  0  0  0
    5.1894    9.4673   20.7118 C   0  0  0  0  0  0  0  0  0  0  0  0
    7.3773    8.8224   21.4870 C   0  0  0  0  0  0  0  0  0  0  0  0
    8.4391    6.6439   21.0235 C   0  0  0  0  0  0  0  0  0  0  0  0
    9.6494   11.1353   20.4167 C   0  0  0  0  0  0  0  0  0  0  0  0
    8.1431    7.6829   21.9046 C   0  0  0  0  0  0  0  0  0  0  0  0
    7.7796   10.1314   21.5115 N   0  0  0  0  0  0  0  0  0  0  0  0
    9.2768    5.6183   21.4437 C   0  0  0  0  0  0  0  0  0  0  0  0
    8.6315    7.7322   23.1768 C   0  0  0  0  0  0  0  0  0  0  0  0
   13.0537    9.9821   20.5781 C   0  0  0  0  0  0  0  0  0  0  0  0
   10.3850    4.6575   23.2386 O   0  0  0  0  0  0  0  0  0  0  0  0
    4.2069    6.8450   20.7994 C   0  0  0  0  0  0  0  0  0  0  0  0
    3.0726   10.1043   19.8522 O   0  0  0  0  0  0  0  0  0  0  0  0
    5.5057    7.1196   21.1155 C   0  0  0  0  0  0  0  0  0  0  0  0
    7.0367   11.0229   21.9948 O   0  0  0  0  0  0  0  0  0  0  0  0
  1  8  4  0
  1 12  4  0
  2  9  1  0
  2 11  4  0
  2 25  4  0
  3 12  4  0
  3 14  1  0
  3 23  4  0
  4 13  4  0
  4 21  4  0
  4 24  1  0
  5  8  4  0
  5 23  4  0
  6 18  2  0
  7 15  4  0
  7 16  1  0
  7 27  4  0
  8 18  1  0
 10 18  1  0
 10 20  1  0
 11 15  4  0
 11 26  1  0
 13 22  4  0
 16 19  1  0
 16 20  2  0
 17 19  4  0
 17 21  4  0
 19 22  4  0
 20 28  1  0
 25 27  4  0
M  END
$$$$

 Created by Python create_sdf_string function

 28 30  0  0  0  0  0  0  0  0999 V2000
   11.4592   11.2893   18.7941 C   0  0  0  0  0  0  0  0  0  0  0  0
    3.4202    7.9009   20.3866 C   0  0  0  0  0  0  0  0  0  0  0  0
   13.5280   10.3522   19.3586 C   0  0  0  0  0  0  0  0  0  0  0  0
    9.6923    5.6468   22.7891 C   0  0  0  0  0  0  0  0  0  0  0  0
   11.7756   10.2554   20.8841 N   0  0  0  0  0  0  0  0  0  0  0  0
    8.9876   11.9370   19.8757 O   0  0  0  0  0  0  0  0  0  0  0  0
    6.0167    8.4478   21.1089 C   0  0  0  0  0  0  0  0  0  0  0  0
   11.0002   10.8890   20.0262 C   0  0  0  0  0  0  0  0  0  0  0  0
    2.1721    7.7393   20.0315 O   0  0  0  0  0  0  0  0  0  0  0  0
    9.1107   10.3880   21.3769 N   0  0  0  0  0  0  0  0  0  0  0  0
    3.9102    9.2008   20.3124 C   0  0  0  0  0  0  0  0  0  0  0  0
   12.7292   10.9960   18.4597 C   0  0  0  0  0  0  0  0  0  0  0  0
    9.3798    6.6793   23.6625 C   0  0  0  0  0  0  0  0  0  0  0  0
   14.7425   10.0739   19.0802 O   0  0  0  0  0  0  0  0  0  0  0  0
    5.1894    9.4673   20.7118 C   0  0  0  0  0  0  0  0  0  0  0  0
    7.3773    8.8224   21.4870 C   0  0  0  0  0  0  0  0  0  0  0  0
    8.4391    6.6439   21.0235 C   0  0  0  0  0  0  0  0  0  0  0  0
    9.6494   11.1353   20.4167 C   0  0  0  0  0  0  0  0  0  0  0  0
    8.1431    7.6829   21.9046 C   0  0  0  0  0  0  0  0  0  0  0  0
    7.7796   10.1314   21.5115 N   0  0  0  0  0  0  0  0  0  0  0  0
    9.2768    5.6183   21.4437 C   0  0  0  0  0  0  0  0  0  0  0  0
    8.6315    7.7322   23.1768 C   0  0  0  0  0  0  0  0  0  0  0  0
   13.0537    9.9821   20.5781 C   0  0  0  0  0  0  0  0  0  0  0  0
   10.3850    4.6575   23.2386 O   0  0  0  0  0  0  0  0  0  0  0  0
    4.2069    6.8450   20.7994 C   0  0  0  0  0  0  0  0  0  0  0  0
    3.0726   10.1043   19.8522 O   0  0  0  0  0  0  0  0  0  0  0  0
    5.5057    7.1196   21.1155 C   0  0  0  0  0  0  0  0  0  0  0  0
    7.0367   11.0229   21.9948 O   0  0  0  0  0  0  0  0  0  0  0  0
  1  8  4  0
  1 12  4  0
  2  9  1  0
  2 11  4  0
  2 25  4  0
  3 12  4  0
  3 14  1  0
  3 23  4  0
  4 13  4  0
  4 21  4  0
  4 24  1  0
  5  8  4  0
  5 23  4  0
  6 18  2  0
  7 15  4  0
  7 16  1  0
  7 27  4  0
  8 18  1  0
 10 18  1  0
 10 20  1  0
 11 15  4  0
 11 26  1  0
 13 22  4  0
 16 19  1  0
 16 20  2  0
 17 19  4  0
 17 21  4  0
 19 22  4  0
 20 28  1  0
 25 27  4  0
M  END
$$$$

 Created by Python create_sdf_string function

 28 30  0  0  0  0  0  0  0  0999 V2000
   11.4592   11.2893   18.7941 C   0  0  0  0  0  0  0  0  0  0  0  0
    3.4202    7.9009   20.3866 C   0  0  0  0  0  0  0  0  0  0  0  0
   13.5280   10.3522   19.3586 C   0  0  0  0  0  0  0  0  0  0  0  0
    9.6923    5.6468   22.7891 C   0  0  0  0  0  0  0  0  0  0  0  0
   11.7756   10.2554   20.8841 N   0  0  0  0  0  0  0  0  0  0  0  0
    8.9876   11.9370   19.8757 O   0  0  0  0  0  0  0  0  0  0  0  0
    6.0167    8.4478   21.1089 C   0  0  0  0  0  0  0  0  0  0  0  0
   11.0002   10.8890   20.0262 C   0  0  0  0  0  0  0  0  0  0  0  0
    2.1721    7.7393   20.0315 O   0  0  0  0  0  0  0  0  0  0  0  0
    9.1107   10.3880   21.3769 N   0  0  0  0  0  0  0  0  0  0  0  0
    3.9102    9.2008   20.3124 C   0  0  0  0  0  0  0  0  0  0  0  0
   12.7292   10.9960   18.4597 C   0  0  0  0  0  0  0  0  0  0  0  0
    9.3798    6.6793   23.6625 C   0  0  0  0  0  0  0  0  0  0  0  0
   14.7425   10.0739   19.0802 O   0  0  0  0  0  0  0  0  0  0  0  0
    5.1894    9.4673   20.7118 C   0  0  0  0  0  0  0  0  0  0  0  0
    7.3773    8.8224   21.4870 C   0  0  0  0  0  0  0  0  0  0  0  0
    8.4391    6.6439   21.0235 C   0  0  0  0  0  0  0  0  0  0  0  0
    9.6494   11.1353   20.4167 C   0  0  0  0  0  0  0  0  0  0  0  0
    8.1431    7.6829   21.9046 C   0  0  0  0  0  0  0  0  0  0  0  0
    7.7796   10.1314   21.5115 N   0  0  0  0  0  0  0  0  0  0  0  0
    9.2768    5.6183   21.4437 C   0  0  0  0  0  0  0  0  0  0  0  0
    8.6315    7.7322   23.1768 C   0  0  0  0  0  0  0  0  0  0  0  0
   13.0537    9.9821   20.5781 C   0  0  0  0  0  0  0  0  0  0  0  0
   10.3850    4.6575   23.2386 O   0  0  0  0  0  0  0  0  0  0  0  0
    4.2069    6.8450   20.7994 C   0  0  0  0  0  0  0  0  0  0  0  0
    3.0726   10.1043   19.8522 O   0  0  0  0  0  0  0  0  0  0  0  0
    5.5057    7.1196   21.1155 C   0  0  0  0  0  0  0  0  0  0  0  0
    7.0367   11.0229   21.9948 O   0  0  0  0  0  0  0  0  0  0  0  0
  1  8  4  0
  1 12  4  0
  2  9  1  0
  2 11  4  0
  2 25  4  0
  3 12  4  0
  3 14  1  0
  3 23  4  0
  4 13  4  0
  4 21  4  0
  4 24  1  0
  5  8  4  0
  5 23  4  0
  6 18  2  0
  7 15  4  0
  7 16  1  0
  7 27  4  0
  8 18  1  0
 10 18  1  0
 10 20  1  0
 11 15  4  0
 11 26  1  0
 13 22  4  0
 16 19  1  0
 16 20  2  0
 17 19  4  0
 17 21  4  0
 19 22  4  0
 20 28  1  0
 25 27  4  0
M  END
$$$$

 Created by Python create_sdf_string function

 28 30  0  0  0  0  0  0  0  0999 V2000
   11.4592   11.2893   18.7941 C   0  0  0  0  0  0  0  0  0  0  0  0
    3.4202    7.9009   20.3866 C   0  0  0  0  0  0  0  0  0  0  0  0
   13.5280   10.3522   19.3586 C   0  0  0  0  0  0  0  0  0  0  0  0
    9.6923    5.6468   22.7891 C   0  0  0  0  0  0  0  0  0  0  0  0
   11.7756   10.2554   20.8841 N   0  0  0  0  0  0  0  0  0  0  0  0
    8.9876   11.9370   19.8757 O   0  0  0  0  0  0  0  0  0  0  0  0
    6.0167    8.4478   21.1089 C   0  0  0  0  0  0  0  0  0  0  0  0
   11.0002   10.8890   20.0262 C   0  0  0  0  0  0  0  0  0  0  0  0
    2.1721    7.7393   20.0315 O   0  0  0  0  0  0  0  0  0  0  0  0
    9.1107   10.3880   21.3769 N   0  0  0  0  0  0  0  0  0  0  0  0
    3.9102    9.2008   20.3124 C   0  0  0  0  0  0  0  0  0  0  0  0
   12.7292   10.9960   18.4597 C   0  0  0  0  0  0  0  0  0  0  0  0
    9.3798    6.6793   23.6625 C   0  0  0  0  0  0  0  0  0  0  0  0
   14.7425   10.0739   19.0802 O   0  0  0  0  0  0  0  0  0  0  0  0
    5.1894    9.4673   20.7118 C   0  0  0  0  0  0  0  0  0  0  0  0
    7.3773    8.8224   21.4870 C   0  0  0  0  0  0  0  0  0  0  0  0
    8.4391    6.6439   21.0235 C   0  0  0  0  0  0  0  0  0  0  0  0
    9.6494   11.1353   20.4167 C   0  0  0  0  0  0  0  0  0  0  0  0
    8.1431    7.6829   21.9046 C   0  0  0  0  0  0  0  0  0  0  0  0
    7.7796   10.1314   21.5115 N   0  0  0  0  0  0  0  0  0  0  0  0
    9.2768    5.6183   21.4437 C   0  0  0  0  0  0  0  0  0  0  0  0
    8.6315    7.7322   23.1768 C   0  0  0  0  0  0  0  0  0  0  0  0
   13.0537    9.9821   20.5781 C   0  0  0  0  0  0  0  0  0  0  0  0
   10.3850    4.6575   23.2386 O   0  0  0  0  0  0  0  0  0  0  0  0
    4.2069    6.8450   20.7994 C   0  0  0  0  0  0  0  0  0  0  0  0
    3.0726   10.1043   19.8522 O   0  0  0  0  0  0  0  0  0  0  0  0
    5.5057    7.1196   21.1155 C   0  0  0  0  0  0  0  0  0  0  0  0
    7.0367   11.0229   21.9948 O   0  0  0  0  0  0  0  0  0  0  0  0
  1  8  4  0
  1 12  4  0
  2  9  1  0
  2 11  4  0
  2 25  4  0
  3 12  4  0
  3 14  1  0
  3 23  4  0
  4 13  4  0
  4 21  4  0
  4 24  1  0
  5  8  4  0
  5 23  4  0
  6 18  2  0
  7 15  4  0
  7 16  1  0
  7 27  4  0
  8 18  1  0
 10 18  1  0
 10 20  1  0
 11 15  4  0
 11 26  1  0
 13 22  4  0
 16 19  1  0
 16 20  2  0
 17 19  4  0
 17 21  4  0
 19 22  4  0
 20 28  1  0
 25 27  4  0
M  END
$$$$

 Created by Python create_sdf_string function

 28 30  0  0  0  0  0  0  0  0999 V2000
   11.4592   11.2893   18.7941 C   0  0  0  0  0  0  0  0  0  0  0  0
    3.4202    7.9009   20.3866 C   0  0  0  0  0  0  0  0  0  0  0  0
   13.5280   10.3522   19.3586 C   0  0  0  0  0  0  0  0  0  0  0  0
    9.6923    5.6468   22.7891 C   0  0  0  0  0  0  0  0  0  0  0  0
   11.7756   10.2554   20.8841 N   0  0  0  0  0  0  0  0  0  0  0  0
    8.9876   11.9370   19.8757 O   0  0  0  0  0  0  0  0  0  0  0  0
    6.0167    8.4478   21.1089 C   0  0  0  0  0  0  0  0  0  0  0  0
   11.0002   10.8890   20.0262 C   0  0  0  0  0  0  0  0  0  0  0  0
    2.1721    7.7393   20.0315 O   0  0  0  0  0  0  0  0  0  0  0  0
    9.1107   10.3880   21.3769 N   0  0  0  0  0  0  0  0  0  0  0  0
    3.9102    9.2008   20.3124 C   0  0  0  0  0  0  0  0  0  0  0  0
   12.7292   10.9960   18.4597 C   0  0  0  0  0  0  0  0  0  0  0  0
    9.3798    6.6793   23.6625 C   0  0  0  0  0  0  0  0  0  0  0  0
   14.7425   10.0739   19.0802 O   0  0  0  0  0  0  0  0  0  0  0  0
    5.1894    9.4673   20.7118 C   0  0  0  0  0  0  0  0  0  0  0  0
    7.3773    8.8224   21.4870 C   0  0  0  0  0  0  0  0  0  0  0  0
    8.4391    6.6439   21.0235 C   0  0  0  0  0  0  0  0  0  0  0  0
    9.6494   11.1353   20.4167 C   0  0  0  0  0  0  0  0  0  0  0  0
    8.1431    7.6829   21.9046 C   0  0  0  0  0  0  0  0  0  0  0  0
    7.7796   10.1314   21.5115 N   0  0  0  0  0  0  0  0  0  0  0  0
    9.2768    5.6183   21.4437 C   0  0  0  0  0  0  0  0  0  0  0  0
    8.6315    7.7322   23.1768 C   0  0  0  0  0  0  0  0  0  0  0  0
   13.0537    9.9821   20.5781 C   0  0  0  0  0  0  0  0  0  0  0  0
   10.3850    4.6575   23.2386 O   0  0  0  0  0  0  0  0  0  0  0  0
    4.2069    6.8450   20.7994 C   0  0  0  0  0  0  0  0  0  0  0  0
    3.0726   10.1043   19.8522 O   0  0  0  0  0  0  0  0  0  0  0  0
    5.5057    7.1196   21.1155 C   0  0  0  0  0  0  0  0  0  0  0  0
    7.0367   11.0229   21.9948 O   0  0  0  0  0  0  0  0  0  0  0  0
  1  8  4  0
  1 12  4  0
  2  9  1  0
  2 11  4  0
  2 25  4  0
  3 12  4  0
  3 14  1  0
  3 23  4  0
  4 13  4  0
  4 21  4  0
  4 24  1  0
  5  8  4  0
  5 23  4  0
  6 18  2  0
  7 15  4  0
  7 16  1  0
  7 27  4  0
  8 18  1  0
 10 18  1  0
 10 20  1  0
 11 15  4  0
 11 26  1  0
 13 22  4  0
 16 19  1  0
 16 20  2  0
 17 19  4  0
 17 21  4  0
 19 22  4  0
 20 28  1  0
 25 27  4  0
M  END
$$$$

 Created by Python create_sdf_string function

 28 30  0  0  0  0  0  0  0  0999 V2000
   11.4592   11.2893   18.7941 C   0  0  0  0  0  0  0  0  0  0  0  0
    3.4202    7.9009   20.3866 C   0  0  0  0  0  0  0  0  0  0  0  0
   13.5280   10.3522   19.3586 C   0  0  0  0  0  0  0  0  0  0  0  0
    9.6923    5.6468   22.7891 C   0  0  0  0  0  0  0  0  0  0  0  0
   11.7756   10.2554   20.8841 N   0  0  0  0  0  0  0  0  0  0  0  0
    8.9876   11.9370   19.8757 O   0  0  0  0  0  0  0  0  0  0  0  0
    6.0167    8.4478   21.1089 C   0  0  0  0  0  0  0  0  0  0  0  0
   11.0002   10.8890   20.0262 C   0  0  0  0  0  0  0  0  0  0  0  0
    2.1721    7.7393   20.0315 O   0  0  0  0  0  0  0  0  0  0  0  0
    9.1107   10.3880   21.3769 N   0  0  0  0  0  0  0  0  0  0  0  0
    3.9102    9.2008   20.3124 C   0  0  0  0  0  0  0  0  0  0  0  0
   12.7292   10.9960   18.4597 C   0  0  0  0  0  0  0  0  0  0  0  0
    9.3798    6.6793   23.6625 C   0  0  0  0  0  0  0  0  0  0  0  0
   14.7425   10.0739   19.0802 O   0  0  0  0  0  0  0  0  0  0  0  0
    5.1894    9.4673   20.7118 C   0  0  0  0  0  0  0  0  0  0  0  0
    7.3773    8.8224   21.4870 C   0  0  0  0  0  0  0  0  0  0  0  0
    8.4391    6.6439   21.0235 C   0  0  0  0  0  0  0  0  0  0  0  0
    9.6494   11.1353   20.4167 C   0  0  0  0  0  0  0  0  0  0  0  0
    8.1431    7.6829   21.9046 C   0  0  0  0  0  0  0  0  0  0  0  0
    7.7796   10.1314   21.5115 N   0  0  0  0  0  0  0  0  0  0  0  0
    9.2768    5.6183   21.4437 C   0  0  0  0  0  0  0  0  0  0  0  0
    8.6315    7.7322   23.1768 C   0  0  0  0  0  0  0  0  0  0  0  0
   13.0537    9.9821   20.5781 C   0  0  0  0  0  0  0  0  0  0  0  0
   10.3850    4.6575   23.2386 O   0  0  0  0  0  0  0  0  0  0  0  0
    4.2069    6.8450   20.7994 C   0  0  0  0  0  0  0  0  0  0  0  0
    3.0726   10.1043   19.8522 O   0  0  0  0  0  0  0  0  0  0  0  0
    5.5057    7.1196   21.1155 C   0  0  0  0  0  0  0  0  0  0  0  0
    7.0367   11.0229   21.9948 O   0  0  0  0  0  0  0  0  0  0  0  0
  1  8  4  0
  1 12  4  0
  2  9  1  0
  2 11  4  0
  2 25  4  0
  3 12  4  0
  3 14  1  0
  3 23  4  0
  4 13  4  0
  4 21  4  0
  4 24  1  0
  5  8  4  0
  5 23  4  0
  6 18  2  0
  7 15  4  0
  7 16  1  0
  7 27  4  0
  8 18  1  0
 10 18  1  0
 10 20  1  0
 11 15  4  0
 11 26  1  0
 13 22  4  0
 16 19  1  0
 16 20  2  0
 17 19  4  0
 17 21  4  0
 19 22  4  0
 20 28  1  0
 25 27  4  0
M  END
$$$$

 Created by Python create_sdf_string function

 28 30  0  0  0  0  0  0  0  0999 V2000
   11.4592   11.2893   18.7941 C   0  0  0  0  0  0  0  0  0  0  0  0
    3.4202    7.9009   20.3866 C   0  0  0  0  0  0  0  0  0  0  0  0
   13.5280   10.3522   19.3586 C   0  0  0  0  0  0  0  0  0  0  0  0
    9.6923    5.6468   22.7891 C   0  0  0  0  0  0  0  0  0  0  0  0
   11.7756   10.2554   20.8841 N   0  0  0  0  0  0  0  0  0  0  0  0
    8.9876   11.9370   19.8757 O   0  0  0  0  0  0  0  0  0  0  0  0
    6.0167    8.4478   21.1089 C   0  0  0  0  0  0  0  0  0  0  0  0
   11.0002   10.8890   20.0262 C   0  0  0  0  0  0  0  0  0  0  0  0
    2.1721    7.7393   20.0315 O   0  0  0  0  0  0  0  0  0  0  0  0
    9.1107   10.3880   21.3769 N   0  0  0  0  0  0  0  0  0  0  0  0
    3.9102    9.2008   20.3124 C   0  0  0  0  0  0  0  0  0  0  0  0
   12.7292   10.9960   18.4597 C   0  0  0  0  0  0  0  0  0  0  0  0
    9.3798    6.6793   23.6625 C   0  0  0  0  0  0  0  0  0  0  0  0
   14.7425   10.0739   19.0802 O   0  0  0  0  0  0  0  0  0  0  0  0
    5.1894    9.4673   20.7118 C   0  0  0  0  0  0  0  0  0  0  0  0
    7.3773    8.8224   21.4870 C   0  0  0  0  0  0  0  0  0  0  0  0
    8.4391    6.6439   21.0235 C   0  0  0  0  0  0  0  0  0  0  0  0
    9.6494   11.1353   20.4167 C   0  0  0  0  0  0  0  0  0  0  0  0
    8.1431    7.6829   21.9046 C   0  0  0  0  0  0  0  0  0  0  0  0
    7.7796   10.1314   21.5115 N   0  0  0  0  0  0  0  0  0  0  0  0
    9.2768    5.6183   21.4437 C   0  0  0  0  0  0  0  0  0  0  0  0
    8.6315    7.7322   23.1768 C   0  0  0  0  0  0  0  0  0  0  0  0
   13.0537    9.9821   20.5781 C   0  0  0  0  0  0  0  0  0  0  0  0
   10.3850    4.6575   23.2386 O   0  0  0  0  0  0  0  0  0  0  0  0
    4.2069    6.8450   20.7994 C   0  0  0  0  0  0  0  0  0  0  0  0
    3.0726   10.1043   19.8522 O   0  0  0  0  0  0  0  0  0  0  0  0
    5.5057    7.1196   21.1155 C   0  0  0  0  0  0  0  0  0  0  0  0
    7.0367   11.0229   21.9948 O   0  0  0  0  0  0  0  0  0  0  0  0
  1  8  4  0
  1 12  4  0
  2  9  1  0
  2 11  4  0
  2 25  4  0
  3 12  4  0
  3 14  1  0
  3 23  4  0
  4 13  4  0
  4 21  4  0
  4 24  1  0
  5  8  4  0
  5 23  4  0
  6 18  2  0
  7 15  4  0
  7 16  1  0
  7 27  4  0
  8 18  1  0
 10 18  1  0
 10 20  1  0
 11 15  4  0
 11 26  1  0
 13 22  4  0
 16 19  1  0
 16 20  2  0
 17 19  4  0
 17 21  4  0
 19 22  4  0
 20 28  1  0
 25 27  4  0
M  END
$$$$

 Created by Python create_sdf_string function

 28 30  0  0  0  0  0  0  0  0999 V2000
   11.4592   11.2893   18.7941 C   0  0  0  0  0  0  0  0  0  0  0  0
    3.4202    7.9009   20.3866 C   0  0  0  0  0  0  0  0  0  0  0  0
   13.5280   10.3522   19.3586 C   0  0  0  0  0  0  0  0  0  0  0  0
    9.6923    5.6468   22.7891 C   0  0  0  0  0  0  0  0  0  0  0  0
   11.7756   10.2554   20.8841 N   0  0  0  0  0  0  0  0  0  0  0  0
    8.9876   11.9370   19.8757 O   0  0  0  0  0  0  0  0  0  0  0  0
    6.0167    8.4478   21.1089 C   0  0  0  0  0  0  0  0  0  0  0  0
   11.0002   10.8890   20.0262 C   0  0  0  0  0  0  0  0  0  0  0  0
    2.1721    7.7393   20.0315 O   0  0  0  0  0  0  0  0  0  0  0  0
    9.1107   10.3880   21.3769 N   0  0  0  0  0  0  0  0  0  0  0  0
    3.9102    9.2008   20.3124 C   0  0  0  0  0  0  0  0  0  0  0  0
   12.7292   10.9960   18.4597 C   0  0  0  0  0  0  0  0  0  0  0  0
    9.3798    6.6793   23.6625 C   0  0  0  0  0  0  0  0  0  0  0  0
   14.7425   10.0739   19.0802 O   0  0  0  0  0  0  0  0  0  0  0  0
    5.1894    9.4673   20.7118 C   0  0  0  0  0  0  0  0  0  0  0  0
    7.3773    8.8224   21.4870 C   0  0  0  0  0  0  0  0  0  0  0  0
    8.4391    6.6439   21.0235 C   0  0  0  0  0  0  0  0  0  0  0  0
    9.6494   11.1353   20.4167 C   0  0  0  0  0  0  0  0  0  0  0  0
    8.1431    7.6829   21.9046 C   0  0  0  0  0  0  0  0  0  0  0  0
    7.7796   10.1314   21.5115 N   0  0  0  0  0  0  0  0  0  0  0  0
    9.2768    5.6183   21.4437 C   0  0  0  0  0  0  0  0  0  0  0  0
    8.6315    7.7322   23.1768 C   0  0  0  0  0  0  0  0  0  0  0  0
   13.0537    9.9821   20.5781 C   0  0  0  0  0  0  0  0  0  0  0  0
   10.3850    4.6575   23.2386 O   0  0  0  0  0  0  0  0  0  0  0  0
    4.2069    6.8450   20.7994 C   0  0  0  0  0  0  0  0  0  0  0  0
    3.0726   10.1043   19.8522 O   0  0  0  0  0  0  0  0  0  0  0  0
    5.5057    7.1196   21.1155 C   0  0  0  0  0  0  0  0  0  0  0  0
    7.0367   11.0229   21.9948 O   0  0  0  0  0  0  0  0  0  0  0  0
  1  8  4  0
  1 12  4  0
  2  9  1  0
  2 11  4  0
  2 25  4  0
  3 12  4  0
  3 14  1  0
  3 23  4  0
  4 13  4  0
  4 21  4  0
  4 24  1  0
  5  8  4  0
  5 23  4  0
  6 18  2  0
  7 15  4  0
  7 16  1  0
  7 27  4  0
  8 18  1  0
 10 18  1  0
 10 20  1  0
 11 15  4  0
 11 26  1  0
 13 22  4  0
 16 19  1  0
 16 20  2  0
 17 19  4  0
 17 21  4  0
 19 22  4  0
 20 28  1  0
 25 27  4  0
M  END
$$$$

 Created by Python create_sdf_string function

 28 30  0  0  0  0  0  0  0  0999 V2000
   11.4592   11.2893   18.7941 C   0  0  0  0  0  0  0  0  0  0  0  0
    3.4202    7.9009   20.3866 C   0  0  0  0  0  0  0  0  0  0  0  0
   13.5280   10.3522   19.3586 C   0  0  0  0  0  0  0  0  0  0  0  0
    9.6923    5.6468   22.7891 C   0  0  0  0  0  0  0  0  0  0  0  0
   11.7756   10.2554   20.8841 N   0  0  0  0  0  0  0  0  0  0  0  0
    8.9876   11.9370   19.8757 O   0  0  0  0  0  0  0  0  0  0  0  0
    6.0167    8.4478   21.1089 C   0  0  0  0  0  0  0  0  0  0  0  0
   11.0002   10.8890   20.0262 C   0  0  0  0  0  0  0  0  0  0  0  0
    2.1721    7.7393   20.0315 O   0  0  0  0  0  0  0  0  0  0  0  0
    9.1107   10.3880   21.3769 N   0  0  0  0  0  0  0  0  0  0  0  0
    3.9102    9.2008   20.3124 C   0  0  0  0  0  0  0  0  0  0  0  0
   12.7292   10.9960   18.4597 C   0  0  0  0  0  0  0  0  0  0  0  0
    9.3798    6.6793   23.6625 C   0  0  0  0  0  0  0  0  0  0  0  0
   14.7425   10.0739   19.0802 O   0  0  0  0  0  0  0  0  0  0  0  0
    5.1894    9.4673   20.7118 C   0  0  0  0  0  0  0  0  0  0  0  0
    7.3773    8.8224   21.4870 C   0  0  0  0  0  0  0  0  0  0  0  0
    8.4391    6.6439   21.0235 C   0  0  0  0  0  0  0  0  0  0  0  0
    9.6494   11.1353   20.4167 C   0  0  0  0  0  0  0  0  0  0  0  0
    8.1431    7.6829   21.9046 C   0  0  0  0  0  0  0  0  0  0  0  0
    7.7796   10.1314   21.5115 N   0  0  0  0  0  0  0  0  0  0  0  0
    9.2768    5.6183   21.4437 C   0  0  0  0  0  0  0  0  0  0  0  0
    8.6315    7.7322   23.1768 C   0  0  0  0  0  0  0  0  0  0  0  0
   13.0537    9.9821   20.5781 C   0  0  0  0  0  0  0  0  0  0  0  0
   10.3850    4.6575   23.2386 O   0  0  0  0  0  0  0  0  0  0  0  0
    4.2069    6.8450   20.7994 C   0  0  0  0  0  0  0  0  0  0  0  0
    3.0726   10.1043   19.8522 O   0  0  0  0  0  0  0  0  0  0  0  0
    5.5057    7.1196   21.1155 C   0  0  0  0  0  0  0  0  0  0  0  0
    7.0367   11.0229   21.9948 O   0  0  0  0  0  0  0  0  0  0  0  0
  1  8  4  0
  1 12  4  0
  2  9  1  0
  2 11  4  0
  2 25  4  0
  3 12  4  0
  3 14  1  0
  3 23  4  0
  4 13  4  0
  4 21  4  0
  4 24  1  0
  5  8  4  0
  5 23  4  0
  6 18  2  0
  7 15  4  0
  7 16  1  0
  7 27  4  0
  8 18  1  0
 10 18  1  0
 10 20  1  0
 11 15  4  0
 11 26  1  0
 13 22  4  0
 16 19  1  0
 16 20  2  0
 17 19  4  0
 17 21  4  0
 19 22  4  0
 20 28  1  0
 25 27  4  0
M  END
$$$$

 Created by Python create_sdf_string function

 28 30  0  0  0  0  0  0  0  0999 V2000
   11.4592   11.2893   18.7941 C   0  0  0  0  0  0  0  0  0  0  0  0
    3.4202    7.9009   20.3866 C   0  0  0  0  0  0  0  0  0  0  0  0
   13.5280   10.3522   19.3586 C   0  0  0  0  0  0  0  0  0  0  0  0
    9.6923    5.6468   22.7891 C   0  0  0  0  0  0  0  0  0  0  0  0
   11.7756   10.2554   20.8841 N   0  0  0  0  0  0  0  0  0  0  0  0
    8.9876   11.9370   19.8757 O   0  0  0  0  0  0  0  0  0  0  0  0
    6.0167    8.4478   21.1089 C   0  0  0  0  0  0  0  0  0  0  0  0
   11.0002   10.8890   20.0262 C   0  0  0  0  0  0  0  0  0  0  0  0
    2.1721    7.7393   20.0315 O   0  0  0  0  0  0  0  0  0  0  0  0
    9.1107   10.3880   21.3769 N   0  0  0  0  0  0  0  0  0  0  0  0
    3.9102    9.2008   20.3124 C   0  0  0  0  0  0  0  0  0  0  0  0
   12.7292   10.9960   18.4597 C   0  0  0  0  0  0  0  0  0  0  0  0
    9.3798    6.6793   23.6625 C   0  0  0  0  0  0  0  0  0  0  0  0
   14.7425   10.0739   19.0802 O   0  0  0  0  0  0  0  0  0  0  0  0
    5.1894    9.4673   20.7118 C   0  0  0  0  0  0  0  0  0  0  0  0
    7.3773    8.8224   21.4870 C   0  0  0  0  0  0  0  0  0  0  0  0
    8.4391    6.6439   21.0235 C   0  0  0  0  0  0  0  0  0  0  0  0
    9.6494   11.1353   20.4167 C   0  0  0  0  0  0  0  0  0  0  0  0
    8.1431    7.6829   21.9046 C   0  0  0  0  0  0  0  0  0  0  0  0
    7.7796   10.1314   21.5115 N   0  0  0  0  0  0  0  0  0  0  0  0
    9.2768    5.6183   21.4437 C   0  0  0  0  0  0  0  0  0  0  0  0
    8.6315    7.7322   23.1768 C   0  0  0  0  0  0  0  0  0  0  0  0
   13.0537    9.9821   20.5781 C   0  0  0  0  0  0  0  0  0  0  0  0
   10.3850    4.6575   23.2386 O   0  0  0  0  0  0  0  0  0  0  0  0
    4.2069    6.8450   20.7994 C   0  0  0  0  0  0  0  0  0  0  0  0
    3.0726   10.1043   19.8522 O   0  0  0  0  0  0  0  0  0  0  0  0
    5.5057    7.1196   21.1155 C   0  0  0  0  0  0  0  0  0  0  0  0
    7.0367   11.0229   21.9948 O   0  0  0  0  0  0  0  0  0  0  0  0
  1  8  4  0
  1 12  4  0
  2  9  1  0
  2 11  4  0
  2 25  4  0
  3 12  4  0
  3 14  1  0
  3 23  4  0
  4 13  4  0
  4 21  4  0
  4 24  1  0
  5  8  4  0
  5 23  4  0
  6 18  2  0
  7 15  4  0
  7 16  1  0
  7 27  4  0
  8 18  1  0
 10 18  1  0
 10 20  1  0
 11 15  4  0
 11 26  1  0
 13 22  4  0
 16 19  1  0
 16 20  2  0
 17 19  4  0
 17 21  4  0
 19 22  4  0
 20 28  1  0
 25 27  4  0
M  END
$$$$

 Created by Python create_sdf_string function

 28 30  0  0  0  0  0  0  0  0999 V2000
   11.4592   11.2893   18.7941 C   0  0  0  0  0  0  0  0  0  0  0  0
    3.4202    7.9009   20.3866 C   0  0  0  0  0  0  0  0  0  0  0  0
   13.5280   10.3522   19.3586 C   0  0  0  0  0  0  0  0  0  0  0  0
    9.6923    5.6468   22.7891 C   0  0  0  0  0  0  0  0  0  0  0  0
   11.7756   10.2554   20.8841 N   0  0  0  0  0  0  0  0  0  0  0  0
    8.9876   11.9370   19.8757 O   0  0  0  0  0  0  0  0  0  0  0  0
    6.0167    8.4478   21.1089 C   0  0  0  0  0  0  0  0  0  0  0  0
   11.0002   10.8890   20.0262 C   0  0  0  0  0  0  0  0  0  0  0  0
    2.1721    7.7393   20.0315 O   0  0  0  0  0  0  0  0  0  0  0  0
    9.1107   10.3880   21.3769 N   0  0  0  0  0  0  0  0  0  0  0  0
    3.9102    9.2008   20.3124 C   0  0  0  0  0  0  0  0  0  0  0  0
   12.7292   10.9960   18.4597 C   0  0  0  0  0  0  0  0  0  0  0  0
    9.3798    6.6793   23.6625 C   0  0  0  0  0  0  0  0  0  0  0  0
   14.7425   10.0739   19.0802 O   0  0  0  0  0  0  0  0  0  0  0  0
    5.1894    9.4673   20.7118 C   0  0  0  0  0  0  0  0  0  0  0  0
    7.3773    8.8224   21.4870 C   0  0  0  0  0  0  0  0  0  0  0  0
    8.4391    6.6439   21.0235 C   0  0  0  0  0  0  0  0  0  0  0  0
    9.6494   11.1353   20.4167 C   0  0  0  0  0  0  0  0  0  0  0  0
    8.1431    7.6829   21.9046 C   0  0  0  0  0  0  0  0  0  0  0  0
    7.7796   10.1314   21.5115 N   0  0  0  0  0  0  0  0  0  0  0  0
    9.2768    5.6183   21.4437 C   0  0  0  0  0  0  0  0  0  0  0  0
    8.6315    7.7322   23.1768 C   0  0  0  0  0  0  0  0  0  0  0  0
   13.0537    9.9821   20.5781 C   0  0  0  0  0  0  0  0  0  0  0  0
   10.3850    4.6575   23.2386 O   0  0  0  0  0  0  0  0  0  0  0  0
    4.2069    6.8450   20.7994 C   0  0  0  0  0  0  0  0  0  0  0  0
    3.0726   10.1043   19.8522 O   0  0  0  0  0  0  0  0  0  0  0  0
    5.5057    7.1196   21.1155 C   0  0  0  0  0  0  0  0  0  0  0  0
    7.0367   11.0229   21.9948 O   0  0  0  0  0  0  0  0  0  0  0  0
  1  8  4  0
  1 12  4  0
  2  9  1  0
  2 11  4  0
  2 25  4  0
  3 12  4  0
  3 14  1  0
  3 23  4  0
  4 13  4  0
  4 21  4  0
  4 24  1  0
  5  8  4  0
  5 23  4  0
  6 18  2  0
  7 15  4  0
  7 16  1  0
  7 27  4  0
  8 18  1  0
 10 18  1  0
 10 20  1  0
 11 15  4  0
 11 26  1  0
 13 22  4  0
 16 19  1  0
 16 20  2  0
 17 19  4  0
 17 21  4  0
 19 22  4  0
 20 28  1  0
 25 27  4  0
M  END
$$$$

 Created by Python create_sdf_string function

 28 30  0  0  0  0  0  0  0  0999 V2000
   11.4592   11.2893   18.7941 C   0  0  0  0  0  0  0  0  0  0  0  0
    3.4202    7.9009   20.3866 C   0  0  0  0  0  0  0  0  0  0  0  0
   13.5280   10.3522   19.3586 C   0  0  0  0  0  0  0  0  0  0  0  0
    9.6923    5.6468   22.7891 C   0  0  0  0  0  0  0  0  0  0  0  0
   11.7756   10.2554   20.8841 N   0  0  0  0  0  0  0  0  0  0  0  0
    8.9876   11.9370   19.8757 O   0  0  0  0  0  0  0  0  0  0  0  0
    6.0167    8.4478   21.1089 C   0  0  0  0  0  0  0  0  0  0  0  0
   11.0002   10.8890   20.0262 C   0  0  0  0  0  0  0  0  0  0  0  0
    2.1721    7.7393   20.0315 O   0  0  0  0  0  0  0  0  0  0  0  0
    9.1107   10.3880   21.3769 N   0  0  0  0  0  0  0  0  0  0  0  0
    3.9102    9.2008   20.3124 C   0  0  0  0  0  0  0  0  0  0  0  0
   12.7292   10.9960   18.4597 C   0  0  0  0  0  0  0  0  0  0  0  0
    9.3798    6.6793   23.6625 C   0  0  0  0  0  0  0  0  0  0  0  0
   14.7425   10.0739   19.0802 O   0  0  0  0  0  0  0  0  0  0  0  0
    5.1894    9.4673   20.7118 C   0  0  0  0  0  0  0  0  0  0  0  0
    7.3773    8.8224   21.4870 C   0  0  0  0  0  0  0  0  0  0  0  0
    8.4391    6.6439   21.0235 C   0  0  0  0  0  0  0  0  0  0  0  0
    9.6494   11.1353   20.4167 C   0  0  0  0  0  0  0  0  0  0  0  0
    8.1431    7.6829   21.9046 C   0  0  0  0  0  0  0  0  0  0  0  0
    7.7796   10.1314   21.5115 N   0  0  0  0  0  0  0  0  0  0  0  0
    9.2768    5.6183   21.4437 C   0  0  0  0  0  0  0  0  0  0  0  0
    8.6315    7.7322   23.1768 C   0  0  0  0  0  0  0  0  0  0  0  0
   13.0537    9.9821   20.5781 C   0  0  0  0  0  0  0  0  0  0  0  0
   10.3850    4.6575   23.2386 O   0  0  0  0  0  0  0  0  0  0  0  0
    4.2069    6.8450   20.7994 C   0  0  0  0  0  0  0  0  0  0  0  0
    3.0726   10.1043   19.8522 O   0  0  0  0  0  0  0  0  0  0  0  0
    5.5057    7.1196   21.1155 C   0  0  0  0  0  0  0  0  0  0  0  0
    7.0367   11.0229   21.9948 O   0  0  0  0  0  0  0  0  0  0  0  0
  1  8  4  0
  1 12  4  0
  2  9  1  0
  2 11  4  0
  2 25  4  0
  3 12  4  0
  3 14  1  0
  3 23  4  0
  4 13  4  0
  4 21  4  0
  4 24  1  0
  5  8  4  0
  5 23  4  0
  6 18  2  0
  7 15  4  0
  7 16  1  0
  7 27  4  0
  8 18  1  0
 10 18  1  0
 10 20  1  0
 11 15  4  0
 11 26  1  0
 13 22  4  0
 16 19  1  0
 16 20  2  0
 17 19  4  0
 17 21  4  0
 19 22  4  0
 20 28  1  0
 25 27  4  0
M  END
$$$$

 Created by Python create_sdf_string function

 28 30  0  0  0  0  0  0  0  0999 V2000
   11.4592   11.2893   18.7941 C   0  0  0  0  0  0  0  0  0  0  0  0
    3.4202    7.9009   20.3866 C   0  0  0  0  0  0  0  0  0  0  0  0
   13.5280   10.3522   19.3586 C   0  0  0  0  0  0  0  0  0  0  0  0
    9.6923    5.6468   22.7891 C   0  0  0  0  0  0  0  0  0  0  0  0
   11.7756   10.2554   20.8841 N   0  0  0  0  0  0  0  0  0  0  0  0
    8.9876   11.9370   19.8757 O   0  0  0  0  0  0  0  0  0  0  0  0
    6.0167    8.4478   21.1089 C   0  0  0  0  0  0  0  0  0  0  0  0
   11.0002   10.8890   20.0262 C   0  0  0  0  0  0  0  0  0  0  0  0
    2.1721    7.7393   20.0315 O   0  0  0  0  0  0  0  0  0  0  0  0
    9.1107   10.3880   21.3769 N   0  0  0  0  0  0  0  0  0  0  0  0
    3.9102    9.2008   20.3124 C   0  0  0  0  0  0  0  0  0  0  0  0
   12.7292   10.9960   18.4597 C   0  0  0  0  0  0  0  0  0  0  0  0
    9.3798    6.6793   23.6625 C   0  0  0  0  0  0  0  0  0  0  0  0
   14.7425   10.0739   19.0802 O   0  0  0  0  0  0  0  0  0  0  0  0
    5.1894    9.4673   20.7118 C   0  0  0  0  0  0  0  0  0  0  0  0
    7.3773    8.8224   21.4870 C   0  0  0  0  0  0  0  0  0  0  0  0
    8.4391    6.6439   21.0235 C   0  0  0  0  0  0  0  0  0  0  0  0
    9.6494   11.1353   20.4167 C   0  0  0  0  0  0  0  0  0  0  0  0
    8.1431    7.6829   21.9046 C   0  0  0  0  0  0  0  0  0  0  0  0
    7.7796   10.1314   21.5115 N   0  0  0  0  0  0  0  0  0  0  0  0
    9.2768    5.6183   21.4437 C   0  0  0  0  0  0  0  0  0  0  0  0
    8.6315    7.7322   23.1768 C   0  0  0  0  0  0  0  0  0  0  0  0
   13.0537    9.9821   20.5781 C   0  0  0  0  0  0  0  0  0  0  0  0
   10.3850    4.6575   23.2386 O   0  0  0  0  0  0  0  0  0  0  0  0
    4.2069    6.8450   20.7994 C   0  0  0  0  0  0  0  0  0  0  0  0
    3.0726   10.1043   19.8522 O   0  0  0  0  0  0  0  0  0  0  0  0
    5.5057    7.1196   21.1155 C   0  0  0  0  0  0  0  0  0  0  0  0
    7.0367   11.0229   21.9948 O   0  0  0  0  0  0  0  0  0  0  0  0
  1  8  4  0
  1 12  4  0
  2  9  1  0
  2 11  4  0
  2 25  4  0
  3 12  4  0
  3 14  1  0
  3 23  4  0
  4 13  4  0
  4 21  4  0
  4 24  1  0
  5  8  4  0
  5 23  4  0
  6 18  2  0
  7 15  4  0
  7 16  1  0
  7 27  4  0
  8 18  1  0
 10 18  1  0
 10 20  1  0
 11 15  4  0
 11 26  1  0
 13 22  4  0
 16 19  1  0
 16 20  2  0
 17 19  4  0
 17 21  4  0
 19 22  4  0
 20 28  1  0
 25 27  4  0
M  END
$$$$

 Created by Python create_sdf_string function

 28 30  0  0  0  0  0  0  0  0999 V2000
   11.4592   11.2893   18.7941 C   0  0  0  0  0  0  0  0  0  0  0  0
    3.4202    7.9009   20.3866 C   0  0  0  0  0  0  0  0  0  0  0  0
   13.5280   10.3522   19.3586 C   0  0  0  0  0  0  0  0  0  0  0  0
    9.6923    5.6468   22.7891 C   0  0  0  0  0  0  0  0  0  0  0  0
   11.7756   10.2554   20.8841 N   0  0  0  0  0  0  0  0  0  0  0  0
    8.9876   11.9370   19.8757 O   0  0  0  0  0  0  0  0  0  0  0  0
    6.0167    8.4478   21.1089 C   0  0  0  0  0  0  0  0  0  0  0  0
   11.0002   10.8890   20.0262 C   0  0  0  0  0  0  0  0  0  0  0  0
    2.1721    7.7393   20.0315 O   0  0  0  0  0  0  0  0  0  0  0  0
    9.1107   10.3880   21.3769 N   0  0  0  0  0  0  0  0  0  0  0  0
    3.9102    9.2008   20.3124 C   0  0  0  0  0  0  0  0  0  0  0  0
   12.7292   10.9960   18.4597 C   0  0  0  0  0  0  0  0  0  0  0  0
    9.3798    6.6793   23.6625 C   0  0  0  0  0  0  0  0  0  0  0  0
   14.7425   10.0739   19.0802 O   0  0  0  0  0  0  0  0  0  0  0  0
    5.1894    9.4673   20.7118 C   0  0  0  0  0  0  0  0  0  0  0  0
    7.3773    8.8224   21.4870 C   0  0  0  0  0  0  0  0  0  0  0  0
    8.4391    6.6439   21.0235 C   0  0  0  0  0  0  0  0  0  0  0  0
    9.6494   11.1353   20.4167 C   0  0  0  0  0  0  0  0  0  0  0  0
    8.1431    7.6829   21.9046 C   0  0  0  0  0  0  0  0  0  0  0  0
    7.7796   10.1314   21.5115 N   0  0  0  0  0  0  0  0  0  0  0  0
    9.2768    5.6183   21.4437 C   0  0  0  0  0  0  0  0  0  0  0  0
    8.6315    7.7322   23.1768 C   0  0  0  0  0  0  0  0  0  0  0  0
   13.0537    9.9821   20.5781 C   0  0  0  0  0  0  0  0  0  0  0  0
   10.3850    4.6575   23.2386 O   0  0  0  0  0  0  0  0  0  0  0  0
    4.2069    6.8450   20.7994 C   0  0  0  0  0  0  0  0  0  0  0  0
    3.0726   10.1043   19.8522 O   0  0  0  0  0  0  0  0  0  0  0  0
    5.5057    7.1196   21.1155 C   0  0  0  0  0  0  0  0  0  0  0  0
    7.0367   11.0229   21.9948 O   0  0  0  0  0  0  0  0  0  0  0  0
  1  8  4  0
  1 12  4  0
  2  9  1  0
  2 11  4  0
  2 25  4  0
  3 12  4  0
  3 14  1  0
  3 23  4  0
  4 13  4  0
  4 21  4  0
  4 24  1  0
  5  8  4  0
  5 23  4  0
  6 18  2  0
  7 15  4  0
  7 16  1  0
  7 27  4  0
  8 18  1  0
 10 18  1  0
 10 20  1  0
 11 15  4  0
 11 26  1  0
 13 22  4  0
 16 19  1  0
 16 20  2  0
 17 19  4  0
 17 21  4  0
 19 22  4  0
 20 28  1  0
 25 27  4  0
M  END
$$$$

 Created by Python create_sdf_string function

 28 30  0  0  0  0  0  0  0  0999 V2000
   11.4592   11.2893   18.7941 C   0  0  0  0  0  0  0  0  0  0  0  0
    3.4202    7.9009   20.3866 C   0  0  0  0  0  0  0  0  0  0  0  0
   13.5280   10.3522   19.3586 C   0  0  0  0  0  0  0  0  0  0  0  0
    9.6923    5.6468   22.7891 C   0  0  0  0  0  0  0  0  0  0  0  0
   11.7756   10.2554   20.8841 N   0  0  0  0  0  0  0  0  0  0  0  0
    8.9876   11.9370   19.8757 O   0  0  0  0  0  0  0  0  0  0  0  0
    6.0167    8.4478   21.1089 C   0  0  0  0  0  0  0  0  0  0  0  0
   11.0002   10.8890   20.0262 C   0  0  0  0  0  0  0  0  0  0  0  0
    2.1721    7.7393   20.0315 O   0  0  0  0  0  0  0  0  0  0  0  0
    9.1107   10.3880   21.3769 N   0  0  0  0  0  0  0  0  0  0  0  0
    3.9102    9.2008   20.3124 C   0  0  0  0  0  0  0  0  0  0  0  0
   12.7292   10.9960   18.4597 C   0  0  0  0  0  0  0  0  0  0  0  0
    9.3798    6.6793   23.6625 C   0  0  0  0  0  0  0  0  0  0  0  0
   14.7425   10.0739   19.0802 O   0  0  0  0  0  0  0  0  0  0  0  0
    5.1894    9.4673   20.7118 C   0  0  0  0  0  0  0  0  0  0  0  0
    7.3773    8.8224   21.4870 C   0  0  0  0  0  0  0  0  0  0  0  0
    8.4391    6.6439   21.0235 C   0  0  0  0  0  0  0  0  0  0  0  0
    9.6494   11.1353   20.4167 C   0  0  0  0  0  0  0  0  0  0  0  0
    8.1431    7.6829   21.9046 C   0  0  0  0  0  0  0  0  0  0  0  0
    7.7796   10.1314   21.5115 N   0  0  0  0  0  0  0  0  0  0  0  0
    9.2768    5.6183   21.4437 C   0  0  0  0  0  0  0  0  0  0  0  0
    8.6315    7.7322   23.1768 C   0  0  0  0  0  0  0  0  0  0  0  0
   13.0537    9.9821   20.5781 C   0  0  0  0  0  0  0  0  0  0  0  0
   10.3850    4.6575   23.2386 O   0  0  0  0  0  0  0  0  0  0  0  0
    4.2069    6.8450   20.7994 C   0  0  0  0  0  0  0  0  0  0  0  0
    3.0726   10.1043   19.8522 O   0  0  0  0  0  0  0  0  0  0  0  0
    5.5057    7.1196   21.1155 C   0  0  0  0  0  0  0  0  0  0  0  0
    7.0367   11.0229   21.9948 O   0  0  0  0  0  0  0  0  0  0  0  0
  1  8  4  0
  1 12  4  0
  2  9  1  0
  2 11  4  0
  2 25  4  0
  3 12  4  0
  3 14  1  0
  3 23  4  0
  4 13  4  0
  4 21  4  0
  4 24  1  0
  5  8  4  0
  5 23  4  0
  6 18  2  0
  7 15  4  0
  7 16  1  0
  7 27  4  0
  8 18  1  0
 10 18  1  0
 10 20  1  0
 11 15  4  0
 11 26  1  0
 13 22  4  0
 16 19  1  0
 16 20  2  0
 17 19  4  0
 17 21  4  0
 19 22  4  0
 20 28  1  0
 25 27  4  0
M  END
$$$$

 Created by Python create_sdf_string function

 28 30  0  0  0  0  0  0  0  0999 V2000
   11.4592   11.2893   18.7941 C   0  0  0  0  0  0  0  0  0  0  0  0
    3.4202    7.9009   20.3866 C   0  0  0  0  0  0  0  0  0  0  0  0
   13.5280   10.3522   19.3586 C   0  0  0  0  0  0  0  0  0  0  0  0
    9.6923    5.6468   22.7891 C   0  0  0  0  0  0  0  0  0  0  0  0
   11.7756   10.2554   20.8841 N   0  0  0  0  0  0  0  0  0  0  0  0
    8.9876   11.9370   19.8757 O   0  0  0  0  0  0  0  0  0  0  0  0
    6.0167    8.4478   21.1089 C   0  0  0  0  0  0  0  0  0  0  0  0
   11.0002   10.8890   20.0262 C   0  0  0  0  0  0  0  0  0  0  0  0
    2.1721    7.7393   20.0315 O   0  0  0  0  0  0  0  0  0  0  0  0
    9.1107   10.3880   21.3769 N   0  0  0  0  0  0  0  0  0  0  0  0
    3.9102    9.2008   20.3124 C   0  0  0  0  0  0  0  0  0  0  0  0
   12.7292   10.9960   18.4597 C   0  0  0  0  0  0  0  0  0  0  0  0
    9.3798    6.6793   23.6625 C   0  0  0  0  0  0  0  0  0  0  0  0
   14.7425   10.0739   19.0802 O   0  0  0  0  0  0  0  0  0  0  0  0
    5.1894    9.4673   20.7118 C   0  0  0  0  0  0  0  0  0  0  0  0
    7.3773    8.8224   21.4870 C   0  0  0  0  0  0  0  0  0  0  0  0
    8.4391    6.6439   21.0235 C   0  0  0  0  0  0  0  0  0  0  0  0
    9.6494   11.1353   20.4167 C   0  0  0  0  0  0  0  0  0  0  0  0
    8.1431    7.6829   21.9046 C   0  0  0  0  0  0  0  0  0  0  0  0
    7.7796   10.1314   21.5115 N   0  0  0  0  0  0  0  0  0  0  0  0
    9.2768    5.6183   21.4437 C   0  0  0  0  0  0  0  0  0  0  0  0
    8.6315    7.7322   23.1768 C   0  0  0  0  0  0  0  0  0  0  0  0
   13.0537    9.9821   20.5781 C   0  0  0  0  0  0  0  0  0  0  0  0
   10.3850    4.6575   23.2386 O   0  0  0  0  0  0  0  0  0  0  0  0
    4.2069    6.8450   20.7994 C   0  0  0  0  0  0  0  0  0  0  0  0
    3.0726   10.1043   19.8522 O   0  0  0  0  0  0  0  0  0  0  0  0
    5.5057    7.1196   21.1155 C   0  0  0  0  0  0  0  0  0  0  0  0
    7.0367   11.0229   21.9948 O   0  0  0  0  0  0  0  0  0  0  0  0
  1  8  4  0
  1 12  4  0
  2  9  1  0
  2 11  4  0
  2 25  4  0
  3 12  4  0
  3 14  1  0
  3 23  4  0
  4 13  4  0
  4 21  4  0
  4 24  1  0
  5  8  4  0
  5 23  4  0
  6 18  2  0
  7 15  4  0
  7 16  1  0
  7 27  4  0
  8 18  1  0
 10 18  1  0
 10 20  1  0
 11 15  4  0
 11 26  1  0
 13 22  4  0
 16 19  1  0
 16 20  2  0
 17 19  4  0
 17 21  4  0
 19 22  4  0
 20 28  1  0
 25 27  4  0
M  END
$$$$

 Created by Python create_sdf_string function

 28 30  0  0  0  0  0  0  0  0999 V2000
   11.4592   11.2893   18.7941 C   0  0  0  0  0  0  0  0  0  0  0  0
    3.4202    7.9009   20.3866 C   0  0  0  0  0  0  0  0  0  0  0  0
   13.5280   10.3522   19.3586 C   0  0  0  0  0  0  0  0  0  0  0  0
    9.6923    5.6468   22.7891 C   0  0  0  0  0  0  0  0  0  0  0  0
   11.7756   10.2554   20.8841 N   0  0  0  0  0  0  0  0  0  0  0  0
    8.9876   11.9370   19.8757 O   0  0  0  0  0  0  0  0  0  0  0  0
    6.0167    8.4478   21.1089 C   0  0  0  0  0  0  0  0  0  0  0  0
   11.0002   10.8890   20.0262 C   0  0  0  0  0  0  0  0  0  0  0  0
    2.1721    7.7393   20.0315 O   0  0  0  0  0  0  0  0  0  0  0  0
    9.1107   10.3880   21.3769 N   0  0  0  0  0  0  0  0  0  0  0  0
    3.9102    9.2008   20.3124 C   0  0  0  0  0  0  0  0  0  0  0  0
   12.7292   10.9960   18.4597 C   0  0  0  0  0  0  0  0  0  0  0  0
    9.3798    6.6793   23.6625 C   0  0  0  0  0  0  0  0  0  0  0  0
   14.7425   10.0739   19.0802 O   0  0  0  0  0  0  0  0  0  0  0  0
    5.1894    9.4673   20.7118 C   0  0  0  0  0  0  0  0  0  0  0  0
    7.3773    8.8224   21.4870 C   0  0  0  0  0  0  0  0  0  0  0  0
    8.4391    6.6439   21.0235 C   0  0  0  0  0  0  0  0  0  0  0  0
    9.6494   11.1353   20.4167 C   0  0  0  0  0  0  0  0  0  0  0  0
    8.1431    7.6829   21.9046 C   0  0  0  0  0  0  0  0  0  0  0  0
    7.7796   10.1314   21.5115 N   0  0  0  0  0  0  0  0  0  0  0  0
    9.2768    5.6183   21.4437 C   0  0  0  0  0  0  0  0  0  0  0  0
    8.6315    7.7322   23.1768 C   0  0  0  0  0  0  0  0  0  0  0  0
   13.0537    9.9821   20.5781 C   0  0  0  0  0  0  0  0  0  0  0  0
   10.3850    4.6575   23.2386 O   0  0  0  0  0  0  0  0  0  0  0  0
    4.2069    6.8450   20.7994 C   0  0  0  0  0  0  0  0  0  0  0  0
    3.0726   10.1043   19.8522 O   0  0  0  0  0  0  0  0  0  0  0  0
    5.5057    7.1196   21.1155 C   0  0  0  0  0  0  0  0  0  0  0  0
    7.0367   11.0229   21.9948 O   0  0  0  0  0  0  0  0  0  0  0  0
  1  8  4  0
  1 12  4  0
  2  9  1  0
  2 11  4  0
  2 25  4  0
  3 12  4  0
  3 14  1  0
  3 23  4  0
  4 13  4  0
  4 21  4  0
  4 24  1  0
  5  8  4  0
  5 23  4  0
  6 18  2  0
  7 15  4  0
  7 16  1  0
  7 27  4  0
  8 18  1  0
 10 18  1  0
 10 20  1  0
 11 15  4  0
 11 26  1  0
 13 22  4  0
 16 19  1  0
 16 20  2  0
 17 19  4  0
 17 21  4  0
 19 22  4  0
 20 28  1  0
 25 27  4  0
M  END
$$$$

 Created by Python create_sdf_string function

 28 30  0  0  0  0  0  0  0  0999 V2000
   11.4592   11.2893   18.7941 C   0  0  0  0  0  0  0  0  0  0  0  0
    3.4202    7.9009   20.3866 C   0  0  0  0  0  0  0  0  0  0  0  0
   13.5280   10.3522   19.3586 C   0  0  0  0  0  0  0  0  0  0  0  0
    9.6923    5.6468   22.7891 C   0  0  0  0  0  0  0  0  0  0  0  0
   11.7756   10.2554   20.8841 N   0  0  0  0  0  0  0  0  0  0  0  0
    8.9876   11.9370   19.8757 O   0  0  0  0  0  0  0  0  0  0  0  0
    6.0167    8.4478   21.1089 C   0  0  0  0  0  0  0  0  0  0  0  0
   11.0002   10.8890   20.0262 C   0  0  0  0  0  0  0  0  0  0  0  0
    2.1721    7.7393   20.0315 O   0  0  0  0  0  0  0  0  0  0  0  0
    9.1107   10.3880   21.3769 N   0  0  0  0  0  0  0  0  0  0  0  0
    3.9102    9.2008   20.3124 C   0  0  0  0  0  0  0  0  0  0  0  0
   12.7292   10.9960   18.4597 C   0  0  0  0  0  0  0  0  0  0  0  0
    9.3798    6.6793   23.6625 C   0  0  0  0  0  0  0  0  0  0  0  0
   14.7425   10.0739   19.0802 O   0  0  0  0  0  0  0  0  0  0  0  0
    5.1894    9.4673   20.7118 C   0  0  0  0  0  0  0  0  0  0  0  0
    7.3773    8.8224   21.4870 C   0  0  0  0  0  0  0  0  0  0  0  0
    8.4391    6.6439   21.0235 C   0  0  0  0  0  0  0  0  0  0  0  0
    9.6494   11.1353   20.4167 C   0  0  0  0  0  0  0  0  0  0  0  0
    8.1431    7.6829   21.9046 C   0  0  0  0  0  0  0  0  0  0  0  0
    7.7796   10.1314   21.5115 N   0  0  0  0  0  0  0  0  0  0  0  0
    9.2768    5.6183   21.4437 C   0  0  0  0  0  0  0  0  0  0  0  0
    8.6315    7.7322   23.1768 C   0  0  0  0  0  0  0  0  0  0  0  0
   13.0537    9.9821   20.5781 C   0  0  0  0  0  0  0  0  0  0  0  0
   10.3850    4.6575   23.2386 O   0  0  0  0  0  0  0  0  0  0  0  0
    4.2069    6.8450   20.7994 C   0  0  0  0  0  0  0  0  0  0  0  0
    3.0726   10.1043   19.8522 O   0  0  0  0  0  0  0  0  0  0  0  0
    5.5057    7.1196   21.1155 C   0  0  0  0  0  0  0  0  0  0  0  0
    7.0367   11.0229   21.9948 O   0  0  0  0  0  0  0  0  0  0  0  0
  1  8  4  0
  1 12  4  0
  2  9  1  0
  2 11  4  0
  2 25  4  0
  3 12  4  0
  3 14  1  0
  3 23  4  0
  4 13  4  0
  4 21  4  0
  4 24  1  0
  5  8  4  0
  5 23  4  0
  6 18  2  0
  7 15  4  0
  7 16  1  0
  7 27  4  0
  8 18  1  0
 10 18  1  0
 10 20  1  0
 11 15  4  0
 11 26  1  0
 13 22  4  0
 16 19  1  0
 16 20  2  0
 17 19  4  0
 17 21  4  0
 19 22  4  0
 20 28  1  0
 25 27  4  0
M  END
$$$$

 Created by Python create_sdf_string function

 28 30  0  0  0  0  0  0  0  0999 V2000
   11.4592   11.2893   18.7941 C   0  0  0  0  0  0  0  0  0  0  0  0
    3.4202    7.9009   20.3866 C   0  0  0  0  0  0  0  0  0  0  0  0
   13.5280   10.3522   19.3586 C   0  0  0  0  0  0  0  0  0  0  0  0
    9.6923    5.6468   22.7891 C   0  0  0  0  0  0  0  0  0  0  0  0
   11.7756   10.2554   20.8841 N   0  0  0  0  0  0  0  0  0  0  0  0
    8.9876   11.9370   19.8757 O   0  0  0  0  0  0  0  0  0  0  0  0
    6.0167    8.4478   21.1089 C   0  0  0  0  0  0  0  0  0  0  0  0
   11.0002   10.8890   20.0262 C   0  0  0  0  0  0  0  0  0  0  0  0
    2.1721    7.7393   20.0315 O   0  0  0  0  0  0  0  0  0  0  0  0
    9.1107   10.3880   21.3769 N   0  0  0  0  0  0  0  0  0  0  0  0
    3.9102    9.2008   20.3124 C   0  0  0  0  0  0  0  0  0  0  0  0
   12.7292   10.9960   18.4597 C   0  0  0  0  0  0  0  0  0  0  0  0
    9.3798    6.6793   23.6625 C   0  0  0  0  0  0  0  0  0  0  0  0
   14.7425   10.0739   19.0802 O   0  0  0  0  0  0  0  0  0  0  0  0
    5.1894    9.4673   20.7118 C   0  0  0  0  0  0  0  0  0  0  0  0
    7.3773    8.8224   21.4870 C   0  0  0  0  0  0  0  0  0  0  0  0
    8.4391    6.6439   21.0235 C   0  0  0  0  0  0  0  0  0  0  0  0
    9.6494   11.1353   20.4167 C   0  0  0  0  0  0  0  0  0  0  0  0
    8.1431    7.6829   21.9046 C   0  0  0  0  0  0  0  0  0  0  0  0
    7.7796   10.1314   21.5115 N   0  0  0  0  0  0  0  0  0  0  0  0
    9.2768    5.6183   21.4437 C   0  0  0  0  0  0  0  0  0  0  0  0
    8.6315    7.7322   23.1768 C   0  0  0  0  0  0  0  0  0  0  0  0
   13.0537    9.9821   20.5781 C   0  0  0  0  0  0  0  0  0  0  0  0
   10.3850    4.6575   23.2386 O   0  0  0  0  0  0  0  0  0  0  0  0
    4.2069    6.8450   20.7994 C   0  0  0  0  0  0  0  0  0  0  0  0
    3.0726   10.1043   19.8522 O   0  0  0  0  0  0  0  0  0  0  0  0
    5.5057    7.1196   21.1155 C   0  0  0  0  0  0  0  0  0  0  0  0
    7.0367   11.0229   21.9948 O   0  0  0  0  0  0  0  0  0  0  0  0
  1  8  4  0
  1 12  4  0
  2  9  1  0
  2 11  4  0
  2 25  4  0
  3 12  4  0
  3 14  1  0
  3 23  4  0
  4 13  4  0
  4 21  4  0
  4 24  1  0
  5  8  4  0
  5 23  4  0
  6 18  2  0
  7 15  4  0
  7 16  1  0
  7 27  4  0
  8 18  1  0
 10 18  1  0
 10 20  1  0
 11 15  4  0
 11 26  1  0
 13 22  4  0
 16 19  1  0
 16 20  2  0
 17 19  4  0
 17 21  4  0
 19 22  4  0
 20 28  1  0
 25 27  4  0
M  END
$$$$

 Created by Python create_sdf_string function

 28 30  0  0  0  0  0  0  0  0999 V2000
   11.4592   11.2893   18.7941 C   0  0  0  0  0  0  0  0  0  0  0  0
    3.4202    7.9009   20.3866 C   0  0  0  0  0  0  0  0  0  0  0  0
   13.5280   10.3522   19.3586 C   0  0  0  0  0  0  0  0  0  0  0  0
    9.6923    5.6468   22.7891 C   0  0  0  0  0  0  0  0  0  0  0  0
   11.7756   10.2554   20.8841 N   0  0  0  0  0  0  0  0  0  0  0  0
    8.9876   11.9370   19.8757 O   0  0  0  0  0  0  0  0  0  0  0  0
    6.0167    8.4478   21.1089 C   0  0  0  0  0  0  0  0  0  0  0  0
   11.0002   10.8890   20.0262 C   0  0  0  0  0  0  0  0  0  0  0  0
    2.1721    7.7393   20.0315 O   0  0  0  0  0  0  0  0  0  0  0  0
    9.1107   10.3880   21.3769 N   0  0  0  0  0  0  0  0  0  0  0  0
    3.9102    9.2008   20.3124 C   0  0  0  0  0  0  0  0  0  0  0  0
   12.7292   10.9960   18.4597 C   0  0  0  0  0  0  0  0  0  0  0  0
    9.3798    6.6793   23.6625 C   0  0  0  0  0  0  0  0  0  0  0  0
   14.7425   10.0739   19.0802 O   0  0  0  0  0  0  0  0  0  0  0  0
    5.1894    9.4673   20.7118 C   0  0  0  0  0  0  0  0  0  0  0  0
    7.3773    8.8224   21.4870 C   0  0  0  0  0  0  0  0  0  0  0  0
    8.4391    6.6439   21.0235 C   0  0  0  0  0  0  0  0  0  0  0  0
    9.6494   11.1353   20.4167 C   0  0  0  0  0  0  0  0  0  0  0  0
    8.1431    7.6829   21.9046 C   0  0  0  0  0  0  0  0  0  0  0  0
    7.7796   10.1314   21.5115 N   0  0  0  0  0  0  0  0  0  0  0  0
    9.2768    5.6183   21.4437 C   0  0  0  0  0  0  0  0  0  0  0  0
    8.6315    7.7322   23.1768 C   0  0  0  0  0  0  0  0  0  0  0  0
   13.0537    9.9821   20.5781 C   0  0  0  0  0  0  0  0  0  0  0  0
   10.3850    4.6575   23.2386 O   0  0  0  0  0  0  0  0  0  0  0  0
    4.2069    6.8450   20.7994 C   0  0  0  0  0  0  0  0  0  0  0  0
    3.0726   10.1043   19.8522 O   0  0  0  0  0  0  0  0  0  0  0  0
    5.5057    7.1196   21.1155 C   0  0  0  0  0  0  0  0  0  0  0  0
    7.0367   11.0229   21.9948 O   0  0  0  0  0  0  0  0  0  0  0  0
  1  8  4  0
  1 12  4  0
  2  9  1  0
  2 11  4  0
  2 25  4  0
  3 12  4  0
  3 14  1  0
  3 23  4  0
  4 13  4  0
  4 21  4  0
  4 24  1  0
  5  8  4  0
  5 23  4  0
  6 18  2  0
  7 15  4  0
  7 16  1  0
  7 27  4  0
  8 18  1  0
 10 18  1  0
 10 20  1  0
 11 15  4  0
 11 26  1  0
 13 22  4  0
 16 19  1  0
 16 20  2  0
 17 19  4  0
 17 21  4  0
 19 22  4  0
 20 28  1  0
 25 27  4  0
M  END
$$$$

 Created by Python create_sdf_string function

 28 30  0  0  0  0  0  0  0  0999 V2000
   11.4592   11.2893   18.7941 C   0  0  0  0  0  0  0  0  0  0  0  0
    3.4202    7.9009   20.3866 C   0  0  0  0  0  0  0  0  0  0  0  0
   13.5280   10.3522   19.3586 C   0  0  0  0  0  0  0  0  0  0  0  0
    9.6923    5.6468   22.7891 C   0  0  0  0  0  0  0  0  0  0  0  0
   11.7756   10.2554   20.8841 N   0  0  0  0  0  0  0  0  0  0  0  0
    8.9876   11.9370   19.8757 O   0  0  0  0  0  0  0  0  0  0  0  0
    6.0167    8.4478   21.1089 C   0  0  0  0  0  0  0  0  0  0  0  0
   11.0002   10.8890   20.0262 C   0  0  0  0  0  0  0  0  0  0  0  0
    2.1721    7.7393   20.0315 O   0  0  0  0  0  0  0  0  0  0  0  0
    9.1107   10.3880   21.3769 N   0  0  0  0  0  0  0  0  0  0  0  0
    3.9102    9.2008   20.3124 C   0  0  0  0  0  0  0  0  0  0  0  0
   12.7292   10.9960   18.4597 C   0  0  0  0  0  0  0  0  0  0  0  0
    9.3798    6.6793   23.6625 C   0  0  0  0  0  0  0  0  0  0  0  0
   14.7425   10.0739   19.0802 O   0  0  0  0  0  0  0  0  0  0  0  0
    5.1894    9.4673   20.7118 C   0  0  0  0  0  0  0  0  0  0  0  0
    7.3773    8.8224   21.4870 C   0  0  0  0  0  0  0  0  0  0  0  0
    8.4391    6.6439   21.0235 C   0  0  0  0  0  0  0  0  0  0  0  0
    9.6494   11.1353   20.4167 C   0  0  0  0  0  0  0  0  0  0  0  0
    8.1431    7.6829   21.9046 C   0  0  0  0  0  0  0  0  0  0  0  0
    7.7796   10.1314   21.5115 N   0  0  0  0  0  0  0  0  0  0  0  0
    9.2768    5.6183   21.4437 C   0  0  0  0  0  0  0  0  0  0  0  0
    8.6315    7.7322   23.1768 C   0  0  0  0  0  0  0  0  0  0  0  0
   13.0537    9.9821   20.5781 C   0  0  0  0  0  0  0  0  0  0  0  0
   10.3850    4.6575   23.2386 O   0  0  0  0  0  0  0  0  0  0  0  0
    4.2069    6.8450   20.7994 C   0  0  0  0  0  0  0  0  0  0  0  0
    3.0726   10.1043   19.8522 O   0  0  0  0  0  0  0  0  0  0  0  0
    5.5057    7.1196   21.1155 C   0  0  0  0  0  0  0  0  0  0  0  0
    7.0367   11.0229   21.9948 O   0  0  0  0  0  0  0  0  0  0  0  0
  1  8  4  0
  1 12  4  0
  2  9  1  0
  2 11  4  0
  2 25  4  0
  3 12  4  0
  3 14  1  0
  3 23  4  0
  4 13  4  0
  4 21  4  0
  4 24  1  0
  5  8  4  0
  5 23  4  0
  6 18  2  0
  7 15  4  0
  7 16  1  0
  7 27  4  0
  8 18  1  0
 10 18  1  0
 10 20  1  0
 11 15  4  0
 11 26  1  0
 13 22  4  0
 16 19  1  0
 16 20  2  0
 17 19  4  0
 17 21  4  0
 19 22  4  0
 20 28  1  0
 25 27  4  0
M  END
$$$$

 Created by Python create_sdf_string function

 28 30  0  0  0  0  0  0  0  0999 V2000
   11.4592   11.2893   18.7941 C   0  0  0  0  0  0  0  0  0  0  0  0
    3.4202    7.9009   20.3866 C   0  0  0  0  0  0  0  0  0  0  0  0
   13.5280   10.3522   19.3586 C   0  0  0  0  0  0  0  0  0  0  0  0
    9.6923    5.6468   22.7891 C   0  0  0  0  0  0  0  0  0  0  0  0
   11.7756   10.2554   20.8841 N   0  0  0  0  0  0  0  0  0  0  0  0
    8.9876   11.9370   19.8757 O   0  0  0  0  0  0  0  0  0  0  0  0
    6.0167    8.4478   21.1089 C   0  0  0  0  0  0  0  0  0  0  0  0
   11.0002   10.8890   20.0262 C   0  0  0  0  0  0  0  0  0  0  0  0
    2.1721    7.7393   20.0315 O   0  0  0  0  0  0  0  0  0  0  0  0
    9.1107   10.3880   21.3769 N   0  0  0  0  0  0  0  0  0  0  0  0
    3.9102    9.2008   20.3124 C   0  0  0  0  0  0  0  0  0  0  0  0
   12.7292   10.9960   18.4597 C   0  0  0  0  0  0  0  0  0  0  0  0
    9.3798    6.6793   23.6625 C   0  0  0  0  0  0  0  0  0  0  0  0
   14.7425   10.0739   19.0802 O   0  0  0  0  0  0  0  0  0  0  0  0
    5.1894    9.4673   20.7118 C   0  0  0  0  0  0  0  0  0  0  0  0
    7.3773    8.8224   21.4870 C   0  0  0  0  0  0  0  0  0  0  0  0
    8.4391    6.6439   21.0235 C   0  0  0  0  0  0  0  0  0  0  0  0
    9.6494   11.1353   20.4167 C   0  0  0  0  0  0  0  0  0  0  0  0
    8.1431    7.6829   21.9046 C   0  0  0  0  0  0  0  0  0  0  0  0
    7.7796   10.1314   21.5115 N   0  0  0  0  0  0  0  0  0  0  0  0
    9.2768    5.6183   21.4437 C   0  0  0  0  0  0  0  0  0  0  0  0
    8.6315    7.7322   23.1768 C   0  0  0  0  0  0  0  0  0  0  0  0
   13.0537    9.9821   20.5781 C   0  0  0  0  0  0  0  0  0  0  0  0
   10.3850    4.6575   23.2386 O   0  0  0  0  0  0  0  0  0  0  0  0
    4.2069    6.8450   20.7994 C   0  0  0  0  0  0  0  0  0  0  0  0
    3.0726   10.1043   19.8522 O   0  0  0  0  0  0  0  0  0  0  0  0
    5.5057    7.1196   21.1155 C   0  0  0  0  0  0  0  0  0  0  0  0
    7.0367   11.0229   21.9948 O   0  0  0  0  0  0  0  0  0  0  0  0
  1  8  4  0
  1 12  4  0
  2  9  1  0
  2 11  4  0
  2 25  4  0
  3 12  4  0
  3 14  1  0
  3 23  4  0
  4 13  4  0
  4 21  4  0
  4 24  1  0
  5  8  4  0
  5 23  4  0
  6 18  2  0
  7 15  4  0
  7 16  1  0
  7 27  4  0
  8 18  1  0
 10 18  1  0
 10 20  1  0
 11 15  4  0
 11 26  1  0
 13 22  4  0
 16 19  1  0
 16 20  2  0
 17 19  4  0
 17 21  4  0
 19 22  4  0
 20 28  1  0
 25 27  4  0
M  END
$$$$

 Created by Python create_sdf_string function

 28 30  0  0  0  0  0  0  0  0999 V2000
   11.4592   11.2893   18.7941 C   0  0  0  0  0  0  0  0  0  0  0  0
    3.4202    7.9009   20.3866 C   0  0  0  0  0  0  0  0  0  0  0  0
   13.5280   10.3522   19.3586 C   0  0  0  0  0  0  0  0  0  0  0  0
    9.6923    5.6468   22.7891 C   0  0  0  0  0  0  0  0  0  0  0  0
   11.7756   10.2554   20.8841 N   0  0  0  0  0  0  0  0  0  0  0  0
    8.9876   11.9370   19.8757 O   0  0  0  0  0  0  0  0  0  0  0  0
    6.0167    8.4478   21.1089 C   0  0  0  0  0  0  0  0  0  0  0  0
   11.0002   10.8890   20.0262 C   0  0  0  0  0  0  0  0  0  0  0  0
    2.1721    7.7393   20.0315 O   0  0  0  0  0  0  0  0  0  0  0  0
    9.1107   10.3880   21.3769 N   0  0  0  0  0  0  0  0  0  0  0  0
    3.9102    9.2008   20.3124 C   0  0  0  0  0  0  0  0  0  0  0  0
   12.7292   10.9960   18.4597 C   0  0  0  0  0  0  0  0  0  0  0  0
    9.3798    6.6793   23.6625 C   0  0  0  0  0  0  0  0  0  0  0  0
   14.7425   10.0739   19.0802 O   0  0  0  0  0  0  0  0  0  0  0  0
    5.1894    9.4673   20.7118 C   0  0  0  0  0  0  0  0  0  0  0  0
    7.3773    8.8224   21.4870 C   0  0  0  0  0  0  0  0  0  0  0  0
    8.4391    6.6439   21.0235 C   0  0  0  0  0  0  0  0  0  0  0  0
    9.6494   11.1353   20.4167 C   0  0  0  0  0  0  0  0  0  0  0  0
    8.1431    7.6829   21.9046 C   0  0  0  0  0  0  0  0  0  0  0  0
    7.7796   10.1314   21.5115 N   0  0  0  0  0  0  0  0  0  0  0  0
    9.2768    5.6183   21.4437 C   0  0  0  0  0  0  0  0  0  0  0  0
    8.6315    7.7322   23.1768 C   0  0  0  0  0  0  0  0  0  0  0  0
   13.0537    9.9821   20.5781 C   0  0  0  0  0  0  0  0  0  0  0  0
   10.3850    4.6575   23.2386 O   0  0  0  0  0  0  0  0  0  0  0  0
    4.2069    6.8450   20.7994 C   0  0  0  0  0  0  0  0  0  0  0  0
    3.0726   10.1043   19.8522 O   0  0  0  0  0  0  0  0  0  0  0  0
    5.5057    7.1196   21.1155 C   0  0  0  0  0  0  0  0  0  0  0  0
    7.0367   11.0229   21.9948 O   0  0  0  0  0  0  0  0  0  0  0  0
  1  8  4  0
  1 12  4  0
  2  9  1  0
  2 11  4  0
  2 25  4  0
  3 12  4  0
  3 14  1  0
  3 23  4  0
  4 13  4  0
  4 21  4  0
  4 24  1  0
  5  8  4  0
  5 23  4  0
  6 18  2  0
  7 15  4  0
  7 16  1  0
  7 27  4  0
  8 18  1  0
 10 18  1  0
 10 20  1  0
 11 15  4  0
 11 26  1  0
 13 22  4  0
 16 19  1  0
 16 20  2  0
 17 19  4  0
 17 21  4  0
 19 22  4  0
 20 28  1  0
 25 27  4  0
M  END
$$$$

 Created by Python create_sdf_string function

 28 30  0  0  0  0  0  0  0  0999 V2000
   11.4592   11.2893   18.7941 C   0  0  0  0  0  0  0  0  0  0  0  0
    3.4202    7.9009   20.3866 C   0  0  0  0  0  0  0  0  0  0  0  0
   13.5280   10.3522   19.3586 C   0  0  0  0  0  0  0  0  0  0  0  0
    9.6923    5.6468   22.7891 C   0  0  0  0  0  0  0  0  0  0  0  0
   11.7756   10.2554   20.8841 N   0  0  0  0  0  0  0  0  0  0  0  0
    8.9876   11.9370   19.8757 O   0  0  0  0  0  0  0  0  0  0  0  0
    6.0167    8.4478   21.1089 C   0  0  0  0  0  0  0  0  0  0  0  0
   11.0002   10.8890   20.0262 C   0  0  0  0  0  0  0  0  0  0  0  0
    2.1721    7.7393   20.0315 O   0  0  0  0  0  0  0  0  0  0  0  0
    9.1107   10.3880   21.3769 N   0  0  0  0  0  0  0  0  0  0  0  0
    3.9102    9.2008   20.3124 C   0  0  0  0  0  0  0  0  0  0  0  0
   12.7292   10.9960   18.4597 C   0  0  0  0  0  0  0  0  0  0  0  0
    9.3798    6.6793   23.6625 C   0  0  0  0  0  0  0  0  0  0  0  0
   14.7425   10.0739   19.0802 O   0  0  0  0  0  0  0  0  0  0  0  0
    5.1894    9.4673   20.7118 C   0  0  0  0  0  0  0  0  0  0  0  0
    7.3773    8.8224   21.4870 C   0  0  0  0  0  0  0  0  0  0  0  0
    8.4391    6.6439   21.0235 C   0  0  0  0  0  0  0  0  0  0  0  0
    9.6494   11.1353   20.4167 C   0  0  0  0  0  0  0  0  0  0  0  0
    8.1431    7.6829   21.9046 C   0  0  0  0  0  0  0  0  0  0  0  0
    7.7796   10.1314   21.5115 N   0  0  0  0  0  0  0  0  0  0  0  0
    9.2768    5.6183   21.4437 C   0  0  0  0  0  0  0  0  0  0  0  0
    8.6315    7.7322   23.1768 C   0  0  0  0  0  0  0  0  0  0  0  0
   13.0537    9.9821   20.5781 C   0  0  0  0  0  0  0  0  0  0  0  0
   10.3850    4.6575   23.2386 O   0  0  0  0  0  0  0  0  0  0  0  0
    4.2069    6.8450   20.7994 C   0  0  0  0  0  0  0  0  0  0  0  0
    3.0726   10.1043   19.8522 O   0  0  0  0  0  0  0  0  0  0  0  0
    5.5057    7.1196   21.1155 C   0  0  0  0  0  0  0  0  0  0  0  0
    7.0367   11.0229   21.9948 O   0  0  0  0  0  0  0  0  0  0  0  0
  1  8  4  0
  1 12  4  0
  2  9  1  0
  2 11  4  0
  2 25  4  0
  3 12  4  0
  3 14  1  0
  3 23  4  0
  4 13  4  0
  4 21  4  0
  4 24  1  0
  5  8  4  0
  5 23  4  0
  6 18  2  0
  7 15  4  0
  7 16  1  0
  7 27  4  0
  8 18  1  0
 10 18  1  0
 10 20  1  0
 11 15  4  0
 11 26  1  0
 13 22  4  0
 16 19  1  0
 16 20  2  0
 17 19  4  0
 17 21  4  0
 19 22  4  0
 20 28  1  0
 25 27  4  0
M  END
$$$$

 Created by Python create_sdf_string function

 28 30  0  0  0  0  0  0  0  0999 V2000
   11.4592   11.2893   18.7941 C   0  0  0  0  0  0  0  0  0  0  0  0
    3.4202    7.9009   20.3866 C   0  0  0  0  0  0  0  0  0  0  0  0
   13.5280   10.3522   19.3586 C   0  0  0  0  0  0  0  0  0  0  0  0
    9.6923    5.6468   22.7891 C   0  0  0  0  0  0  0  0  0  0  0  0
   11.7756   10.2554   20.8841 N   0  0  0  0  0  0  0  0  0  0  0  0
    8.9876   11.9370   19.8757 O   0  0  0  0  0  0  0  0  0  0  0  0
    6.0167    8.4478   21.1089 C   0  0  0  0  0  0  0  0  0  0  0  0
   11.0002   10.8890   20.0262 C   0  0  0  0  0  0  0  0  0  0  0  0
    2.1721    7.7393   20.0315 O   0  0  0  0  0  0  0  0  0  0  0  0
    9.1107   10.3880   21.3769 N   0  0  0  0  0  0  0  0  0  0  0  0
    3.9102    9.2008   20.3124 C   0  0  0  0  0  0  0  0  0  0  0  0
   12.7292   10.9960   18.4597 C   0  0  0  0  0  0  0  0  0  0  0  0
    9.3798    6.6793   23.6625 C   0  0  0  0  0  0  0  0  0  0  0  0
   14.7425   10.0739   19.0802 O   0  0  0  0  0  0  0  0  0  0  0  0
    5.1894    9.4673   20.7118 C   0  0  0  0  0  0  0  0  0  0  0  0
    7.3773    8.8224   21.4870 C   0  0  0  0  0  0  0  0  0  0  0  0
    8.4391    6.6439   21.0235 C   0  0  0  0  0  0  0  0  0  0  0  0
    9.6494   11.1353   20.4167 C   0  0  0  0  0  0  0  0  0  0  0  0
    8.1431    7.6829   21.9046 C   0  0  0  0  0  0  0  0  0  0  0  0
    7.7796   10.1314   21.5115 N   0  0  0  0  0  0  0  0  0  0  0  0
    9.2768    5.6183   21.4437 C   0  0  0  0  0  0  0  0  0  0  0  0
    8.6315    7.7322   23.1768 C   0  0  0  0  0  0  0  0  0  0  0  0
   13.0537    9.9821   20.5781 C   0  0  0  0  0  0  0  0  0  0  0  0
   10.3850    4.6575   23.2386 O   0  0  0  0  0  0  0  0  0  0  0  0
    4.2069    6.8450   20.7994 C   0  0  0  0  0  0  0  0  0  0  0  0
    3.0726   10.1043   19.8522 O   0  0  0  0  0  0  0  0  0  0  0  0
    5.5057    7.1196   21.1155 C   0  0  0  0  0  0  0  0  0  0  0  0
    7.0367   11.0229   21.9948 O   0  0  0  0  0  0  0  0  0  0  0  0
  1  8  4  0
  1 12  4  0
  2  9  1  0
  2 11  4  0
  2 25  4  0
  3 12  4  0
  3 14  1  0
  3 23  4  0
  4 13  4  0
  4 21  4  0
  4 24  1  0
  5  8  4  0
  5 23  4  0
  6 18  2  0
  7 15  4  0
  7 16  1  0
  7 27  4  0
  8 18  1  0
 10 18  1  0
 10 20  1  0
 11 15  4  0
 11 26  1  0
 13 22  4  0
 16 19  1  0
 16 20  2  0
 17 19  4  0
 17 21  4  0
 19 22  4  0
 20 28  1  0
 25 27  4  0
M  END
$$$$

 Created by Python create_sdf_string function

 28 30  0  0  0  0  0  0  0  0999 V2000
   11.4592   11.2893   18.7941 C   0  0  0  0  0  0  0  0  0  0  0  0
    3.4202    7.9009   20.3866 C   0  0  0  0  0  0  0  0  0  0  0  0
   13.5280   10.3522   19.3586 C   0  0  0  0  0  0  0  0  0  0  0  0
    9.6923    5.6468   22.7891 C   0  0  0  0  0  0  0  0  0  0  0  0
   11.7756   10.2554   20.8841 N   0  0  0  0  0  0  0  0  0  0  0  0
    8.9876   11.9370   19.8757 O   0  0  0  0  0  0  0  0  0  0  0  0
    6.0167    8.4478   21.1089 C   0  0  0  0  0  0  0  0  0  0  0  0
   11.0002   10.8890   20.0262 C   0  0  0  0  0  0  0  0  0  0  0  0
    2.1721    7.7393   20.0315 O   0  0  0  0  0  0  0  0  0  0  0  0
    9.1107   10.3880   21.3769 N   0  0  0  0  0  0  0  0  0  0  0  0
    3.9102    9.2008   20.3124 C   0  0  0  0  0  0  0  0  0  0  0  0
   12.7292   10.9960   18.4597 C   0  0  0  0  0  0  0  0  0  0  0  0
    9.3798    6.6793   23.6625 C   0  0  0  0  0  0  0  0  0  0  0  0
   14.7425   10.0739   19.0802 O   0  0  0  0  0  0  0  0  0  0  0  0
    5.1894    9.4673   20.7118 C   0  0  0  0  0  0  0  0  0  0  0  0
    7.3773    8.8224   21.4870 C   0  0  0  0  0  0  0  0  0  0  0  0
    8.4391    6.6439   21.0235 C   0  0  0  0  0  0  0  0  0  0  0  0
    9.6494   11.1353   20.4167 C   0  0  0  0  0  0  0  0  0  0  0  0
    8.1431    7.6829   21.9046 C   0  0  0  0  0  0  0  0  0  0  0  0
    7.7796   10.1314   21.5115 N   0  0  0  0  0  0  0  0  0  0  0  0
    9.2768    5.6183   21.4437 C   0  0  0  0  0  0  0  0  0  0  0  0
    8.6315    7.7322   23.1768 C   0  0  0  0  0  0  0  0  0  0  0  0
   13.0537    9.9821   20.5781 C   0  0  0  0  0  0  0  0  0  0  0  0
   10.3850    4.6575   23.2386 O   0  0  0  0  0  0  0  0  0  0  0  0
    4.2069    6.8450   20.7994 C   0  0  0  0  0  0  0  0  0  0  0  0
    3.0726   10.1043   19.8522 O   0  0  0  0  0  0  0  0  0  0  0  0
    5.5057    7.1196   21.1155 C   0  0  0  0  0  0  0  0  0  0  0  0
    7.0367   11.0229   21.9948 O   0  0  0  0  0  0  0  0  0  0  0  0
  1  8  4  0
  1 12  4  0
  2  9  1  0
  2 11  4  0
  2 25  4  0
  3 12  4  0
  3 14  1  0
  3 23  4  0
  4 13  4  0
  4 21  4  0
  4 24  1  0
  5  8  4  0
  5 23  4  0
  6 18  2  0
  7 15  4  0
  7 16  1  0
  7 27  4  0
  8 18  1  0
 10 18  1  0
 10 20  1  0
 11 15  4  0
 11 26  1  0
 13 22  4  0
 16 19  1  0
 16 20  2  0
 17 19  4  0
 17 21  4  0
 19 22  4  0
 20 28  1  0
 25 27  4  0
M  END
$$$$

 Created by Python create_sdf_string function

 28 30  0  0  0  0  0  0  0  0999 V2000
   11.4592   11.2893   18.7941 C   0  0  0  0  0  0  0  0  0  0  0  0
    3.4202    7.9009   20.3866 C   0  0  0  0  0  0  0  0  0  0  0  0
   13.5280   10.3522   19.3586 C   0  0  0  0  0  0  0  0  0  0  0  0
    9.6923    5.6468   22.7891 C   0  0  0  0  0  0  0  0  0  0  0  0
   11.7756   10.2554   20.8841 N   0  0  0  0  0  0  0  0  0  0  0  0
    8.9876   11.9370   19.8757 O   0  0  0  0  0  0  0  0  0  0  0  0
    6.0167    8.4478   21.1089 C   0  0  0  0  0  0  0  0  0  0  0  0
   11.0002   10.8890   20.0262 C   0  0  0  0  0  0  0  0  0  0  0  0
    2.1721    7.7393   20.0315 O   0  0  0  0  0  0  0  0  0  0  0  0
    9.1107   10.3880   21.3769 N   0  0  0  0  0  0  0  0  0  0  0  0
    3.9102    9.2008   20.3124 C   0  0  0  0  0  0  0  0  0  0  0  0
   12.7292   10.9960   18.4597 C   0  0  0  0  0  0  0  0  0  0  0  0
    9.3798    6.6793   23.6625 C   0  0  0  0  0  0  0  0  0  0  0  0
   14.7425   10.0739   19.0802 O   0  0  0  0  0  0  0  0  0  0  0  0
    5.1894    9.4673   20.7118 C   0  0  0  0  0  0  0  0  0  0  0  0
    7.3773    8.8224   21.4870 C   0  0  0  0  0  0  0  0  0  0  0  0
    8.4391    6.6439   21.0235 C   0  0  0  0  0  0  0  0  0  0  0  0
    9.6494   11.1353   20.4167 C   0  0  0  0  0  0  0  0  0  0  0  0
    8.1431    7.6829   21.9046 C   0  0  0  0  0  0  0  0  0  0  0  0
    7.7796   10.1314   21.5115 N   0  0  0  0  0  0  0  0  0  0  0  0
    9.2768    5.6183   21.4437 C   0  0  0  0  0  0  0  0  0  0  0  0
    8.6315    7.7322   23.1768 C   0  0  0  0  0  0  0  0  0  0  0  0
   13.0537    9.9821   20.5781 C   0  0  0  0  0  0  0  0  0  0  0  0
   10.3850    4.6575   23.2386 O   0  0  0  0  0  0  0  0  0  0  0  0
    4.2069    6.8450   20.7994 C   0  0  0  0  0  0  0  0  0  0  0  0
    3.0726   10.1043   19.8522 O   0  0  0  0  0  0  0  0  0  0  0  0
    5.5057    7.1196   21.1155 C   0  0  0  0  0  0  0  0  0  0  0  0
    7.0367   11.0229   21.9948 O   0  0  0  0  0  0  0  0  0  0  0  0
  1  8  4  0
  1 12  4  0
  2  9  1  0
  2 11  4  0
  2 25  4  0
  3 12  4  0
  3 14  1  0
  3 23  4  0
  4 13  4  0
  4 21  4  0
  4 24  1  0
  5  8  4  0
  5 23  4  0
  6 18  2  0
  7 15  4  0
  7 16  1  0
  7 27  4  0
  8 18  1  0
 10 18  1  0
 10 20  1  0
 11 15  4  0
 11 26  1  0
 13 22  4  0
 16 19  1  0
 16 20  2  0
 17 19  4  0
 17 21  4  0
 19 22  4  0
 20 28  1  0
 25 27  4  0
M  END
$$$$

 Created by Python create_sdf_string function

 28 30  0  0  0  0  0  0  0  0999 V2000
   11.4592   11.2893   18.7941 C   0  0  0  0  0  0  0  0  0  0  0  0
    3.4202    7.9009   20.3866 C   0  0  0  0  0  0  0  0  0  0  0  0
   13.5280   10.3522   19.3586 C   0  0  0  0  0  0  0  0  0  0  0  0
    9.6923    5.6468   22.7891 C   0  0  0  0  0  0  0  0  0  0  0  0
   11.7756   10.2554   20.8841 N   0  0  0  0  0  0  0  0  0  0  0  0
    8.9876   11.9370   19.8757 O   0  0  0  0  0  0  0  0  0  0  0  0
    6.0167    8.4478   21.1089 C   0  0  0  0  0  0  0  0  0  0  0  0
   11.0002   10.8890   20.0262 C   0  0  0  0  0  0  0  0  0  0  0  0
    2.1721    7.7393   20.0315 O   0  0  0  0  0  0  0  0  0  0  0  0
    9.1107   10.3880   21.3769 N   0  0  0  0  0  0  0  0  0  0  0  0
    3.9102    9.2008   20.3124 C   0  0  0  0  0  0  0  0  0  0  0  0
   12.7292   10.9960   18.4597 C   0  0  0  0  0  0  0  0  0  0  0  0
    9.3798    6.6793   23.6625 C   0  0  0  0  0  0  0  0  0  0  0  0
   14.7425   10.0739   19.0802 O   0  0  0  0  0  0  0  0  0  0  0  0
    5.1894    9.4673   20.7118 C   0  0  0  0  0  0  0  0  0  0  0  0
    7.3773    8.8224   21.4870 C   0  0  0  0  0  0  0  0  0  0  0  0
    8.4391    6.6439   21.0235 C   0  0  0  0  0  0  0  0  0  0  0  0
    9.6494   11.1353   20.4167 C   0  0  0  0  0  0  0  0  0  0  0  0
    8.1431    7.6829   21.9046 C   0  0  0  0  0  0  0  0  0  0  0  0
    7.7796   10.1314   21.5115 N   0  0  0  0  0  0  0  0  0  0  0  0
    9.2768    5.6183   21.4437 C   0  0  0  0  0  0  0  0  0  0  0  0
    8.6315    7.7322   23.1768 C   0  0  0  0  0  0  0  0  0  0  0  0
   13.0537    9.9821   20.5781 C   0  0  0  0  0  0  0  0  0  0  0  0
   10.3850    4.6575   23.2386 O   0  0  0  0  0  0  0  0  0  0  0  0
    4.2069    6.8450   20.7994 C   0  0  0  0  0  0  0  0  0  0  0  0
    3.0726   10.1043   19.8522 O   0  0  0  0  0  0  0  0  0  0  0  0
    5.5057    7.1196   21.1155 C   0  0  0  0  0  0  0  0  0  0  0  0
    7.0367   11.0229   21.9948 O   0  0  0  0  0  0  0  0  0  0  0  0
  1  8  4  0
  1 12  4  0
  2  9  1  0
  2 11  4  0
  2 25  4  0
  3 12  4  0
  3 14  1  0
  3 23  4  0
  4 13  4  0
  4 21  4  0
  4 24  1  0
  5  8  4  0
  5 23  4  0
  6 18  2  0
  7 15  4  0
  7 16  1  0
  7 27  4  0
  8 18  1  0
 10 18  1  0
 10 20  1  0
 11 15  4  0
 11 26  1  0
 13 22  4  0
 16 19  1  0
 16 20  2  0
 17 19  4  0
 17 21  4  0
 19 22  4  0
 20 28  1  0
 25 27  4  0
M  END
$$$$

 Created by Python create_sdf_string function

 28 30  0  0  0  0  0  0  0  0999 V2000
   11.4592   11.2893   18.7941 C   0  0  0  0  0  0  0  0  0  0  0  0
    3.4202    7.9009   20.3866 C   0  0  0  0  0  0  0  0  0  0  0  0
   13.5280   10.3522   19.3586 C   0  0  0  0  0  0  0  0  0  0  0  0
    9.6923    5.6468   22.7891 C   0  0  0  0  0  0  0  0  0  0  0  0
   11.7756   10.2554   20.8841 N   0  0  0  0  0  0  0  0  0  0  0  0
    8.9876   11.9370   19.8757 O   0  0  0  0  0  0  0  0  0  0  0  0
    6.0167    8.4478   21.1089 C   0  0  0  0  0  0  0  0  0  0  0  0
   11.0002   10.8890   20.0262 C   0  0  0  0  0  0  0  0  0  0  0  0
    2.1721    7.7393   20.0315 O   0  0  0  0  0  0  0  0  0  0  0  0
    9.1107   10.3880   21.3769 N   0  0  0  0  0  0  0  0  0  0  0  0
    3.9102    9.2008   20.3124 C   0  0  0  0  0  0  0  0  0  0  0  0
   12.7292   10.9960   18.4597 C   0  0  0  0  0  0  0  0  0  0  0  0
    9.3798    6.6793   23.6625 C   0  0  0  0  0  0  0  0  0  0  0  0
   14.7425   10.0739   19.0802 O   0  0  0  0  0  0  0  0  0  0  0  0
    5.1894    9.4673   20.7118 C   0  0  0  0  0  0  0  0  0  0  0  0
    7.3773    8.8224   21.4870 C   0  0  0  0  0  0  0  0  0  0  0  0
    8.4391    6.6439   21.0235 C   0  0  0  0  0  0  0  0  0  0  0  0
    9.6494   11.1353   20.4167 C   0  0  0  0  0  0  0  0  0  0  0  0
    8.1431    7.6829   21.9046 C   0  0  0  0  0  0  0  0  0  0  0  0
    7.7796   10.1314   21.5115 N   0  0  0  0  0  0  0  0  0  0  0  0
    9.2768    5.6183   21.4437 C   0  0  0  0  0  0  0  0  0  0  0  0
    8.6315    7.7322   23.1768 C   0  0  0  0  0  0  0  0  0  0  0  0
   13.0537    9.9821   20.5781 C   0  0  0  0  0  0  0  0  0  0  0  0
   10.3850    4.6575   23.2386 O   0  0  0  0  0  0  0  0  0  0  0  0
    4.2069    6.8450   20.7994 C   0  0  0  0  0  0  0  0  0  0  0  0
    3.0726   10.1043   19.8522 O   0  0  0  0  0  0  0  0  0  0  0  0
    5.5057    7.1196   21.1155 C   0  0  0  0  0  0  0  0  0  0  0  0
    7.0367   11.0229   21.9948 O   0  0  0  0  0  0  0  0  0  0  0  0
  1  8  4  0
  1 12  4  0
  2  9  1  0
  2 11  4  0
  2 25  4  0
  3 12  4  0
  3 14  1  0
  3 23  4  0
  4 13  4  0
  4 21  4  0
  4 24  1  0
  5  8  4  0
  5 23  4  0
  6 18  2  0
  7 15  4  0
  7 16  1  0
  7 27  4  0
  8 18  1  0
 10 18  1  0
 10 20  1  0
 11 15  4  0
 11 26  1  0
 13 22  4  0
 16 19  1  0
 16 20  2  0
 17 19  4  0
 17 21  4  0
 19 22  4  0
 20 28  1  0
 25 27  4  0
M  END
$$$$

 Created by Python create_sdf_string function

 28 30  0  0  0  0  0  0  0  0999 V2000
   11.4592   11.2893   18.7941 C   0  0  0  0  0  0  0  0  0  0  0  0
    3.4202    7.9009   20.3866 C   0  0  0  0  0  0  0  0  0  0  0  0
   13.5280   10.3522   19.3586 C   0  0  0  0  0  0  0  0  0  0  0  0
    9.6923    5.6468   22.7891 C   0  0  0  0  0  0  0  0  0  0  0  0
   11.7756   10.2554   20.8841 N   0  0  0  0  0  0  0  0  0  0  0  0
    8.9876   11.9370   19.8757 O   0  0  0  0  0  0  0  0  0  0  0  0
    6.0167    8.4478   21.1089 C   0  0  0  0  0  0  0  0  0  0  0  0
   11.0002   10.8890   20.0262 C   0  0  0  0  0  0  0  0  0  0  0  0
    2.1721    7.7393   20.0315 O   0  0  0  0  0  0  0  0  0  0  0  0
    9.1107   10.3880   21.3769 N   0  0  0  0  0  0  0  0  0  0  0  0
    3.9102    9.2008   20.3124 C   0  0  0  0  0  0  0  0  0  0  0  0
   12.7292   10.9960   18.4597 C   0  0  0  0  0  0  0  0  0  0  0  0
    9.3798    6.6793   23.6625 C   0  0  0  0  0  0  0  0  0  0  0  0
   14.7425   10.0739   19.0802 O   0  0  0  0  0  0  0  0  0  0  0  0
    5.1894    9.4673   20.7118 C   0  0  0  0  0  0  0  0  0  0  0  0
    7.3773    8.8224   21.4870 C   0  0  0  0  0  0  0  0  0  0  0  0
    8.4391    6.6439   21.0235 C   0  0  0  0  0  0  0  0  0  0  0  0
    9.6494   11.1353   20.4167 C   0  0  0  0  0  0  0  0  0  0  0  0
    8.1431    7.6829   21.9046 C   0  0  0  0  0  0  0  0  0  0  0  0
    7.7796   10.1314   21.5115 N   0  0  0  0  0  0  0  0  0  0  0  0
    9.2768    5.6183   21.4437 C   0  0  0  0  0  0  0  0  0  0  0  0
    8.6315    7.7322   23.1768 C   0  0  0  0  0  0  0  0  0  0  0  0
   13.0537    9.9821   20.5781 C   0  0  0  0  0  0  0  0  0  0  0  0
   10.3850    4.6575   23.2386 O   0  0  0  0  0  0  0  0  0  0  0  0
    4.2069    6.8450   20.7994 C   0  0  0  0  0  0  0  0  0  0  0  0
    3.0726   10.1043   19.8522 O   0  0  0  0  0  0  0  0  0  0  0  0
    5.5057    7.1196   21.1155 C   0  0  0  0  0  0  0  0  0  0  0  0
    7.0367   11.0229   21.9948 O   0  0  0  0  0  0  0  0  0  0  0  0
  1  8  4  0
  1 12  4  0
  2  9  1  0
  2 11  4  0
  2 25  4  0
  3 12  4  0
  3 14  1  0
  3 23  4  0
  4 13  4  0
  4 21  4  0
  4 24  1  0
  5  8  4  0
  5 23  4  0
  6 18  2  0
  7 15  4  0
  7 16  1  0
  7 27  4  0
  8 18  1  0
 10 18  1  0
 10 20  1  0
 11 15  4  0
 11 26  1  0
 13 22  4  0
 16 19  1  0
 16 20  2  0
 17 19  4  0
 17 21  4  0
 19 22  4  0
 20 28  1  0
 25 27  4  0
M  END
$$$$

 Created by Python create_sdf_string function

 28 30  0  0  0  0  0  0  0  0999 V2000
   11.4592   11.2893   18.7941 C   0  0  0  0  0  0  0  0  0  0  0  0
    3.4202    7.9009   20.3866 C   0  0  0  0  0  0  0  0  0  0  0  0
   13.5280   10.3522   19.3586 C   0  0  0  0  0  0  0  0  0  0  0  0
    9.6923    5.6468   22.7891 C   0  0  0  0  0  0  0  0  0  0  0  0
   11.7756   10.2554   20.8841 N   0  0  0  0  0  0  0  0  0  0  0  0
    8.9876   11.9370   19.8757 O   0  0  0  0  0  0  0  0  0  0  0  0
    6.0167    8.4478   21.1089 C   0  0  0  0  0  0  0  0  0  0  0  0
   11.0002   10.8890   20.0262 C   0  0  0  0  0  0  0  0  0  0  0  0
    2.1721    7.7393   20.0315 O   0  0  0  0  0  0  0  0  0  0  0  0
    9.1107   10.3880   21.3769 N   0  0  0  0  0  0  0  0  0  0  0  0
    3.9102    9.2008   20.3124 C   0  0  0  0  0  0  0  0  0  0  0  0
   12.7292   10.9960   18.4597 C   0  0  0  0  0  0  0  0  0  0  0  0
    9.3798    6.6793   23.6625 C   0  0  0  0  0  0  0  0  0  0  0  0
   14.7425   10.0739   19.0802 O   0  0  0  0  0  0  0  0  0  0  0  0
    5.1894    9.4673   20.7118 C   0  0  0  0  0  0  0  0  0  0  0  0
    7.3773    8.8224   21.4870 C   0  0  0  0  0  0  0  0  0  0  0  0
    8.4391    6.6439   21.0235 C   0  0  0  0  0  0  0  0  0  0  0  0
    9.6494   11.1353   20.4167 C   0  0  0  0  0  0  0  0  0  0  0  0
    8.1431    7.6829   21.9046 C   0  0  0  0  0  0  0  0  0  0  0  0
    7.7796   10.1314   21.5115 N   0  0  0  0  0  0  0  0  0  0  0  0
    9.2768    5.6183   21.4437 C   0  0  0  0  0  0  0  0  0  0  0  0
    8.6315    7.7322   23.1768 C   0  0  0  0  0  0  0  0  0  0  0  0
   13.0537    9.9821   20.5781 C   0  0  0  0  0  0  0  0  0  0  0  0
   10.3850    4.6575   23.2386 O   0  0  0  0  0  0  0  0  0  0  0  0
    4.2069    6.8450   20.7994 C   0  0  0  0  0  0  0  0  0  0  0  0
    3.0726   10.1043   19.8522 O   0  0  0  0  0  0  0  0  0  0  0  0
    5.5057    7.1196   21.1155 C   0  0  0  0  0  0  0  0  0  0  0  0
    7.0367   11.0229   21.9948 O   0  0  0  0  0  0  0  0  0  0  0  0
  1  8  4  0
  1 12  4  0
  2  9  1  0
  2 11  4  0
  2 25  4  0
  3 12  4  0
  3 14  1  0
  3 23  4  0
  4 13  4  0
  4 21  4  0
  4 24  1  0
  5  8  4  0
  5 23  4  0
  6 18  2  0
  7 15  4  0
  7 16  1  0
  7 27  4  0
  8 18  1  0
 10 18  1  0
 10 20  1  0
 11 15  4  0
 11 26  1  0
 13 22  4  0
 16 19  1  0
 16 20  2  0
 17 19  4  0
 17 21  4  0
 19 22  4  0
 20 28  1  0
 25 27  4  0
M  END
$$$$

 Created by Python create_sdf_string function

 28 30  0  0  0  0  0  0  0  0999 V2000
   11.4592   11.2893   18.7941 C   0  0  0  0  0  0  0  0  0  0  0  0
    3.4202    7.9009   20.3866 C   0  0  0  0  0  0  0  0  0  0  0  0
   13.5280   10.3522   19.3586 C   0  0  0  0  0  0  0  0  0  0  0  0
    9.6923    5.6468   22.7891 C   0  0  0  0  0  0  0  0  0  0  0  0
   11.7756   10.2554   20.8841 N   0  0  0  0  0  0  0  0  0  0  0  0
    8.9876   11.9370   19.8757 O   0  0  0  0  0  0  0  0  0  0  0  0
    6.0167    8.4478   21.1089 C   0  0  0  0  0  0  0  0  0  0  0  0
   11.0002   10.8890   20.0262 C   0  0  0  0  0  0  0  0  0  0  0  0
    2.1721    7.7393   20.0315 O   0  0  0  0  0  0  0  0  0  0  0  0
    9.1107   10.3880   21.3769 N   0  0  0  0  0  0  0  0  0  0  0  0
    3.9102    9.2008   20.3124 C   0  0  0  0  0  0  0  0  0  0  0  0
   12.7292   10.9960   18.4597 C   0  0  0  0  0  0  0  0  0  0  0  0
    9.3798    6.6793   23.6625 C   0  0  0  0  0  0  0  0  0  0  0  0
   14.7425   10.0739   19.0802 O   0  0  0  0  0  0  0  0  0  0  0  0
    5.1894    9.4673   20.7118 C   0  0  0  0  0  0  0  0  0  0  0  0
    7.3773    8.8224   21.4870 C   0  0  0  0  0  0  0  0  0  0  0  0
    8.4391    6.6439   21.0235 C   0  0  0  0  0  0  0  0  0  0  0  0
    9.6494   11.1353   20.4167 C   0  0  0  0  0  0  0  0  0  0  0  0
    8.1431    7.6829   21.9046 C   0  0  0  0  0  0  0  0  0  0  0  0
    7.7796   10.1314   21.5115 N   0  0  0  0  0  0  0  0  0  0  0  0
    9.2768    5.6183   21.4437 C   0  0  0  0  0  0  0  0  0  0  0  0
    8.6315    7.7322   23.1768 C   0  0  0  0  0  0  0  0  0  0  0  0
   13.0537    9.9821   20.5781 C   0  0  0  0  0  0  0  0  0  0  0  0
   10.3850    4.6575   23.2386 O   0  0  0  0  0  0  0  0  0  0  0  0
    4.2069    6.8450   20.7994 C   0  0  0  0  0  0  0  0  0  0  0  0
    3.0726   10.1043   19.8522 O   0  0  0  0  0  0  0  0  0  0  0  0
    5.5057    7.1196   21.1155 C   0  0  0  0  0  0  0  0  0  0  0  0
    7.0367   11.0229   21.9948 O   0  0  0  0  0  0  0  0  0  0  0  0
  1  8  4  0
  1 12  4  0
  2  9  1  0
  2 11  4  0
  2 25  4  0
  3 12  4  0
  3 14  1  0
  3 23  4  0
  4 13  4  0
  4 21  4  0
  4 24  1  0
  5  8  4  0
  5 23  4  0
  6 18  2  0
  7 15  4  0
  7 16  1  0
  7 27  4  0
  8 18  1  0
 10 18  1  0
 10 20  1  0
 11 15  4  0
 11 26  1  0
 13 22  4  0
 16 19  1  0
 16 20  2  0
 17 19  4  0
 17 21  4  0
 19 22  4  0
 20 28  1  0
 25 27  4  0
M  END
$$$$

 Created by Python create_sdf_string function

 28 30  0  0  0  0  0  0  0  0999 V2000
   11.4592   11.2893   18.7941 C   0  0  0  0  0  0  0  0  0  0  0  0
    3.4202    7.9009   20.3866 C   0  0  0  0  0  0  0  0  0  0  0  0
   13.5280   10.3522   19.3586 C   0  0  0  0  0  0  0  0  0  0  0  0
    9.6923    5.6468   22.7891 C   0  0  0  0  0  0  0  0  0  0  0  0
   11.7756   10.2554   20.8841 N   0  0  0  0  0  0  0  0  0  0  0  0
    8.9876   11.9370   19.8757 O   0  0  0  0  0  0  0  0  0  0  0  0
    6.0167    8.4478   21.1089 C   0  0  0  0  0  0  0  0  0  0  0  0
   11.0002   10.8890   20.0262 C   0  0  0  0  0  0  0  0  0  0  0  0
    2.1721    7.7393   20.0315 O   0  0  0  0  0  0  0  0  0  0  0  0
    9.1107   10.3880   21.3769 N   0  0  0  0  0  0  0  0  0  0  0  0
    3.9102    9.2008   20.3124 C   0  0  0  0  0  0  0  0  0  0  0  0
   12.7292   10.9960   18.4597 C   0  0  0  0  0  0  0  0  0  0  0  0
    9.3798    6.6793   23.6625 C   0  0  0  0  0  0  0  0  0  0  0  0
   14.7425   10.0739   19.0802 O   0  0  0  0  0  0  0  0  0  0  0  0
    5.1894    9.4673   20.7118 C   0  0  0  0  0  0  0  0  0  0  0  0
    7.3773    8.8224   21.4870 C   0  0  0  0  0  0  0  0  0  0  0  0
    8.4391    6.6439   21.0235 C   0  0  0  0  0  0  0  0  0  0  0  0
    9.6494   11.1353   20.4167 C   0  0  0  0  0  0  0  0  0  0  0  0
    8.1431    7.6829   21.9046 C   0  0  0  0  0  0  0  0  0  0  0  0
    7.7796   10.1314   21.5115 N   0  0  0  0  0  0  0  0  0  0  0  0
    9.2768    5.6183   21.4437 C   0  0  0  0  0  0  0  0  0  0  0  0
    8.6315    7.7322   23.1768 C   0  0  0  0  0  0  0  0  0  0  0  0
   13.0537    9.9821   20.5781 C   0  0  0  0  0  0  0  0  0  0  0  0
   10.3850    4.6575   23.2386 O   0  0  0  0  0  0  0  0  0  0  0  0
    4.2069    6.8450   20.7994 C   0  0  0  0  0  0  0  0  0  0  0  0
    3.0726   10.1043   19.8522 O   0  0  0  0  0  0  0  0  0  0  0  0
    5.5057    7.1196   21.1155 C   0  0  0  0  0  0  0  0  0  0  0  0
    7.0367   11.0229   21.9948 O   0  0  0  0  0  0  0  0  0  0  0  0
  1  8  4  0
  1 12  4  0
  2  9  1  0
  2 11  4  0
  2 25  4  0
  3 12  4  0
  3 14  1  0
  3 23  4  0
  4 13  4  0
  4 21  4  0
  4 24  1  0
  5  8  4  0
  5 23  4  0
  6 18  2  0
  7 15  4  0
  7 16  1  0
  7 27  4  0
  8 18  1  0
 10 18  1  0
 10 20  1  0
 11 15  4  0
 11 26  1  0
 13 22  4  0
 16 19  1  0
 16 20  2  0
 17 19  4  0
 17 21  4  0
 19 22  4  0
 20 28  1  0
 25 27  4  0
M  END
$$$$

 Created by Python create_sdf_string function

 28 30  0  0  0  0  0  0  0  0999 V2000
   11.4592   11.2893   18.7941 C   0  0  0  0  0  0  0  0  0  0  0  0
    3.4202    7.9009   20.3866 C   0  0  0  0  0  0  0  0  0  0  0  0
   13.5280   10.3522   19.3586 C   0  0  0  0  0  0  0  0  0  0  0  0
    9.6923    5.6468   22.7891 C   0  0  0  0  0  0  0  0  0  0  0  0
   11.7756   10.2554   20.8841 N   0  0  0  0  0  0  0  0  0  0  0  0
    8.9876   11.9370   19.8757 O   0  0  0  0  0  0  0  0  0  0  0  0
    6.0167    8.4478   21.1089 C   0  0  0  0  0  0  0  0  0  0  0  0
   11.0002   10.8890   20.0262 C   0  0  0  0  0  0  0  0  0  0  0  0
    2.1721    7.7393   20.0315 O   0  0  0  0  0  0  0  0  0  0  0  0
    9.1107   10.3880   21.3769 N   0  0  0  0  0  0  0  0  0  0  0  0
    3.9102    9.2008   20.3124 C   0  0  0  0  0  0  0  0  0  0  0  0
   12.7292   10.9960   18.4597 C   0  0  0  0  0  0  0  0  0  0  0  0
    9.3798    6.6793   23.6625 C   0  0  0  0  0  0  0  0  0  0  0  0
   14.7425   10.0739   19.0802 O   0  0  0  0  0  0  0  0  0  0  0  0
    5.1894    9.4673   20.7118 C   0  0  0  0  0  0  0  0  0  0  0  0
    7.3773    8.8224   21.4870 C   0  0  0  0  0  0  0  0  0  0  0  0
    8.4391    6.6439   21.0235 C   0  0  0  0  0  0  0  0  0  0  0  0
    9.6494   11.1353   20.4167 C   0  0  0  0  0  0  0  0  0  0  0  0
    8.1431    7.6829   21.9046 C   0  0  0  0  0  0  0  0  0  0  0  0
    7.7796   10.1314   21.5115 N   0  0  0  0  0  0  0  0  0  0  0  0
    9.2768    5.6183   21.4437 C   0  0  0  0  0  0  0  0  0  0  0  0
    8.6315    7.7322   23.1768 C   0  0  0  0  0  0  0  0  0  0  0  0
   13.0537    9.9821   20.5781 C   0  0  0  0  0  0  0  0  0  0  0  0
   10.3850    4.6575   23.2386 O   0  0  0  0  0  0  0  0  0  0  0  0
    4.2069    6.8450   20.7994 C   0  0  0  0  0  0  0  0  0  0  0  0
    3.0726   10.1043   19.8522 O   0  0  0  0  0  0  0  0  0  0  0  0
    5.5057    7.1196   21.1155 C   0  0  0  0  0  0  0  0  0  0  0  0
    7.0367   11.0229   21.9948 O   0  0  0  0  0  0  0  0  0  0  0  0
  1  8  4  0
  1 12  4  0
  2  9  1  0
  2 11  4  0
  2 25  4  0
  3 12  4  0
  3 14  1  0
  3 23  4  0
  4 13  4  0
  4 21  4  0
  4 24  1  0
  5  8  4  0
  5 23  4  0
  6 18  2  0
  7 15  4  0
  7 16  1  0
  7 27  4  0
  8 18  1  0
 10 18  1  0
 10 20  1  0
 11 15  4  0
 11 26  1  0
 13 22  4  0
 16 19  1  0
 16 20  2  0
 17 19  4  0
 17 21  4  0
 19 22  4  0
 20 28  1  0
 25 27  4  0
M  END
$$$$

 Created by Python create_sdf_string function

 28 30  0  0  0  0  0  0  0  0999 V2000
   11.4592   11.2893   18.7941 C   0  0  0  0  0  0  0  0  0  0  0  0
    3.4202    7.9009   20.3866 C   0  0  0  0  0  0  0  0  0  0  0  0
   13.5280   10.3522   19.3586 C   0  0  0  0  0  0  0  0  0  0  0  0
    9.6923    5.6468   22.7891 C   0  0  0  0  0  0  0  0  0  0  0  0
   11.7756   10.2554   20.8841 N   0  0  0  0  0  0  0  0  0  0  0  0
    8.9876   11.9370   19.8757 O   0  0  0  0  0  0  0  0  0  0  0  0
    6.0167    8.4478   21.1089 C   0  0  0  0  0  0  0  0  0  0  0  0
   11.0002   10.8890   20.0262 C   0  0  0  0  0  0  0  0  0  0  0  0
    2.1721    7.7393   20.0315 O   0  0  0  0  0  0  0  0  0  0  0  0
    9.1107   10.3880   21.3769 N   0  0  0  0  0  0  0  0  0  0  0  0
    3.9102    9.2008   20.3124 C   0  0  0  0  0  0  0  0  0  0  0  0
   12.7292   10.9960   18.4597 C   0  0  0  0  0  0  0  0  0  0  0  0
    9.3798    6.6793   23.6625 C   0  0  0  0  0  0  0  0  0  0  0  0
   14.7425   10.0739   19.0802 O   0  0  0  0  0  0  0  0  0  0  0  0
    5.1894    9.4673   20.7118 C   0  0  0  0  0  0  0  0  0  0  0  0
    7.3773    8.8224   21.4870 C   0  0  0  0  0  0  0  0  0  0  0  0
    8.4391    6.6439   21.0235 C   0  0  0  0  0  0  0  0  0  0  0  0
    9.6494   11.1353   20.4167 C   0  0  0  0  0  0  0  0  0  0  0  0
    8.1431    7.6829   21.9046 C   0  0  0  0  0  0  0  0  0  0  0  0
    7.7796   10.1314   21.5115 N   0  0  0  0  0  0  0  0  0  0  0  0
    9.2768    5.6183   21.4437 C   0  0  0  0  0  0  0  0  0  0  0  0
    8.6315    7.7322   23.1768 C   0  0  0  0  0  0  0  0  0  0  0  0
   13.0537    9.9821   20.5781 C   0  0  0  0  0  0  0  0  0  0  0  0
   10.3850    4.6575   23.2386 O   0  0  0  0  0  0  0  0  0  0  0  0
    4.2069    6.8450   20.7994 C   0  0  0  0  0  0  0  0  0  0  0  0
    3.0726   10.1043   19.8522 O   0  0  0  0  0  0  0  0  0  0  0  0
    5.5057    7.1196   21.1155 C   0  0  0  0  0  0  0  0  0  0  0  0
    7.0367   11.0229   21.9948 O   0  0  0  0  0  0  0  0  0  0  0  0
  1  8  4  0
  1 12  4  0
  2  9  1  0
  2 11  4  0
  2 25  4  0
  3 12  4  0
  3 14  1  0
  3 23  4  0
  4 13  4  0
  4 21  4  0
  4 24  1  0
  5  8  4  0
  5 23  4  0
  6 18  2  0
  7 15  4  0
  7 16  1  0
  7 27  4  0
  8 18  1  0
 10 18  1  0
 10 20  1  0
 11 15  4  0
 11 26  1  0
 13 22  4  0
 16 19  1  0
 16 20  2  0
 17 19  4  0
 17 21  4  0
 19 22  4  0
 20 28  1  0
 25 27  4  0
M  END
$$$$

 Created by Python create_sdf_string function

 28 30  0  0  0  0  0  0  0  0999 V2000
   11.4592   11.2893   18.7941 C   0  0  0  0  0  0  0  0  0  0  0  0
    3.4202    7.9009   20.3866 C   0  0  0  0  0  0  0  0  0  0  0  0
   13.5280   10.3522   19.3586 C   0  0  0  0  0  0  0  0  0  0  0  0
    9.6923    5.6468   22.7891 C   0  0  0  0  0  0  0  0  0  0  0  0
   11.7756   10.2554   20.8841 N   0  0  0  0  0  0  0  0  0  0  0  0
    8.9876   11.9370   19.8757 O   0  0  0  0  0  0  0  0  0  0  0  0
    6.0167    8.4478   21.1089 C   0  0  0  0  0  0  0  0  0  0  0  0
   11.0002   10.8890   20.0262 C   0  0  0  0  0  0  0  0  0  0  0  0
    2.1721    7.7393   20.0315 O   0  0  0  0  0  0  0  0  0  0  0  0
    9.1107   10.3880   21.3769 N   0  0  0  0  0  0  0  0  0  0  0  0
    3.9102    9.2008   20.3124 C   0  0  0  0  0  0  0  0  0  0  0  0
   12.7292   10.9960   18.4597 C   0  0  0  0  0  0  0  0  0  0  0  0
    9.3798    6.6793   23.6625 C   0  0  0  0  0  0  0  0  0  0  0  0
   14.7425   10.0739   19.0802 O   0  0  0  0  0  0  0  0  0  0  0  0
    5.1894    9.4673   20.7118 C   0  0  0  0  0  0  0  0  0  0  0  0
    7.3773    8.8224   21.4870 C   0  0  0  0  0  0  0  0  0  0  0  0
    8.4391    6.6439   21.0235 C   0  0  0  0  0  0  0  0  0  0  0  0
    9.6494   11.1353   20.4167 C   0  0  0  0  0  0  0  0  0  0  0  0
    8.1431    7.6829   21.9046 C   0  0  0  0  0  0  0  0  0  0  0  0
    7.7796   10.1314   21.5115 N   0  0  0  0  0  0  0  0  0  0  0  0
    9.2768    5.6183   21.4437 C   0  0  0  0  0  0  0  0  0  0  0  0
    8.6315    7.7322   23.1768 C   0  0  0  0  0  0  0  0  0  0  0  0
   13.0537    9.9821   20.5781 C   0  0  0  0  0  0  0  0  0  0  0  0
   10.3850    4.6575   23.2386 O   0  0  0  0  0  0  0  0  0  0  0  0
    4.2069    6.8450   20.7994 C   0  0  0  0  0  0  0  0  0  0  0  0
    3.0726   10.1043   19.8522 O   0  0  0  0  0  0  0  0  0  0  0  0
    5.5057    7.1196   21.1155 C   0  0  0  0  0  0  0  0  0  0  0  0
    7.0367   11.0229   21.9948 O   0  0  0  0  0  0  0  0  0  0  0  0
  1  8  4  0
  1 12  4  0
  2  9  1  0
  2 11  4  0
  2 25  4  0
  3 12  4  0
  3 14  1  0
  3 23  4  0
  4 13  4  0
  4 21  4  0
  4 24  1  0
  5  8  4  0
  5 23  4  0
  6 18  2  0
  7 15  4  0
  7 16  1  0
  7 27  4  0
  8 18  1  0
 10 18  1  0
 10 20  1  0
 11 15  4  0
 11 26  1  0
 13 22  4  0
 16 19  1  0
 16 20  2  0
 17 19  4  0
 17 21  4  0
 19 22  4  0
 20 28  1  0
 25 27  4  0
M  END
$$$$

 Created by Python create_sdf_string function

 28 30  0  0  0  0  0  0  0  0999 V2000
   11.4592   11.2893   18.7941 C   0  0  0  0  0  0  0  0  0  0  0  0
    3.4202    7.9009   20.3866 C   0  0  0  0  0  0  0  0  0  0  0  0
   13.5280   10.3522   19.3586 C   0  0  0  0  0  0  0  0  0  0  0  0
    9.6923    5.6468   22.7891 C   0  0  0  0  0  0  0  0  0  0  0  0
   11.7756   10.2554   20.8841 N   0  0  0  0  0  0  0  0  0  0  0  0
    8.9876   11.9370   19.8757 O   0  0  0  0  0  0  0  0  0  0  0  0
    6.0167    8.4478   21.1089 C   0  0  0  0  0  0  0  0  0  0  0  0
   11.0002   10.8890   20.0262 C   0  0  0  0  0  0  0  0  0  0  0  0
    2.1721    7.7393   20.0315 O   0  0  0  0  0  0  0  0  0  0  0  0
    9.1107   10.3880   21.3769 N   0  0  0  0  0  0  0  0  0  0  0  0
    3.9102    9.2008   20.3124 C   0  0  0  0  0  0  0  0  0  0  0  0
   12.7292   10.9960   18.4597 C   0  0  0  0  0  0  0  0  0  0  0  0
    9.3798    6.6793   23.6625 C   0  0  0  0  0  0  0  0  0  0  0  0
   14.7425   10.0739   19.0802 O   0  0  0  0  0  0  0  0  0  0  0  0
    5.1894    9.4673   20.7118 C   0  0  0  0  0  0  0  0  0  0  0  0
    7.3773    8.8224   21.4870 C   0  0  0  0  0  0  0  0  0  0  0  0
    8.4391    6.6439   21.0235 C   0  0  0  0  0  0  0  0  0  0  0  0
    9.6494   11.1353   20.4167 C   0  0  0  0  0  0  0  0  0  0  0  0
    8.1431    7.6829   21.9046 C   0  0  0  0  0  0  0  0  0  0  0  0
    7.7796   10.1314   21.5115 N   0  0  0  0  0  0  0  0  0  0  0  0
    9.2768    5.6183   21.4437 C   0  0  0  0  0  0  0  0  0  0  0  0
    8.6315    7.7322   23.1768 C   0  0  0  0  0  0  0  0  0  0  0  0
   13.0537    9.9821   20.5781 C   0  0  0  0  0  0  0  0  0  0  0  0
   10.3850    4.6575   23.2386 O   0  0  0  0  0  0  0  0  0  0  0  0
    4.2069    6.8450   20.7994 C   0  0  0  0  0  0  0  0  0  0  0  0
    3.0726   10.1043   19.8522 O   0  0  0  0  0  0  0  0  0  0  0  0
    5.5057    7.1196   21.1155 C   0  0  0  0  0  0  0  0  0  0  0  0
    7.0367   11.0229   21.9948 O   0  0  0  0  0  0  0  0  0  0  0  0
  1  8  4  0
  1 12  4  0
  2  9  1  0
  2 11  4  0
  2 25  4  0
  3 12  4  0
  3 14  1  0
  3 23  4  0
  4 13  4  0
  4 21  4  0
  4 24  1  0
  5  8  4  0
  5 23  4  0
  6 18  2  0
  7 15  4  0
  7 16  1  0
  7 27  4  0
  8 18  1  0
 10 18  1  0
 10 20  1  0
 11 15  4  0
 11 26  1  0
 13 22  4  0
 16 19  1  0
 16 20  2  0
 17 19  4  0
 17 21  4  0
 19 22  4  0
 20 28  1  0
 25 27  4  0
M  END
$$$$

 Created by Python create_sdf_string function

 28 30  0  0  0  0  0  0  0  0999 V2000
   11.4592   11.2893   18.7941 C   0  0  0  0  0  0  0  0  0  0  0  0
    3.4202    7.9009   20.3866 C   0  0  0  0  0  0  0  0  0  0  0  0
   13.5280   10.3522   19.3586 C   0  0  0  0  0  0  0  0  0  0  0  0
    9.6923    5.6468   22.7891 C   0  0  0  0  0  0  0  0  0  0  0  0
   11.7756   10.2554   20.8841 N   0  0  0  0  0  0  0  0  0  0  0  0
    8.9876   11.9370   19.8757 O   0  0  0  0  0  0  0  0  0  0  0  0
    6.0167    8.4478   21.1089 C   0  0  0  0  0  0  0  0  0  0  0  0
   11.0002   10.8890   20.0262 C   0  0  0  0  0  0  0  0  0  0  0  0
    2.1721    7.7393   20.0315 O   0  0  0  0  0  0  0  0  0  0  0  0
    9.1107   10.3880   21.3769 N   0  0  0  0  0  0  0  0  0  0  0  0
    3.9102    9.2008   20.3124 C   0  0  0  0  0  0  0  0  0  0  0  0
   12.7292   10.9960   18.4597 C   0  0  0  0  0  0  0  0  0  0  0  0
    9.3798    6.6793   23.6625 C   0  0  0  0  0  0  0  0  0  0  0  0
   14.7425   10.0739   19.0802 O   0  0  0  0  0  0  0  0  0  0  0  0
    5.1894    9.4673   20.7118 C   0  0  0  0  0  0  0  0  0  0  0  0
    7.3773    8.8224   21.4870 C   0  0  0  0  0  0  0  0  0  0  0  0
    8.4391    6.6439   21.0235 C   0  0  0  0  0  0  0  0  0  0  0  0
    9.6494   11.1353   20.4167 C   0  0  0  0  0  0  0  0  0  0  0  0
    8.1431    7.6829   21.9046 C   0  0  0  0  0  0  0  0  0  0  0  0
    7.7796   10.1314   21.5115 N   0  0  0  0  0  0  0  0  0  0  0  0
    9.2768    5.6183   21.4437 C   0  0  0  0  0  0  0  0  0  0  0  0
    8.6315    7.7322   23.1768 C   0  0  0  0  0  0  0  0  0  0  0  0
   13.0537    9.9821   20.5781 C   0  0  0  0  0  0  0  0  0  0  0  0
   10.3850    4.6575   23.2386 O   0  0  0  0  0  0  0  0  0  0  0  0
    4.2069    6.8450   20.7994 C   0  0  0  0  0  0  0  0  0  0  0  0
    3.0726   10.1043   19.8522 O   0  0  0  0  0  0  0  0  0  0  0  0
    5.5057    7.1196   21.1155 C   0  0  0  0  0  0  0  0  0  0  0  0
    7.0367   11.0229   21.9948 O   0  0  0  0  0  0  0  0  0  0  0  0
  1  8  4  0
  1 12  4  0
  2  9  1  0
  2 11  4  0
  2 25  4  0
  3 12  4  0
  3 14  1  0
  3 23  4  0
  4 13  4  0
  4 21  4  0
  4 24  1  0
  5  8  4  0
  5 23  4  0
  6 18  2  0
  7 15  4  0
  7 16  1  0
  7 27  4  0
  8 18  1  0
 10 18  1  0
 10 20  1  0
 11 15  4  0
 11 26  1  0
 13 22  4  0
 16 19  1  0
 16 20  2  0
 17 19  4  0
 17 21  4  0
 19 22  4  0
 20 28  1  0
 25 27  4  0
M  END
$$$$

 Created by Python create_sdf_string function

 28 30  0  0  0  0  0  0  0  0999 V2000
   11.4592   11.2893   18.7941 C   0  0  0  0  0  0  0  0  0  0  0  0
    3.4202    7.9009   20.3866 C   0  0  0  0  0  0  0  0  0  0  0  0
   13.5280   10.3522   19.3586 C   0  0  0  0  0  0  0  0  0  0  0  0
    9.6923    5.6468   22.7891 C   0  0  0  0  0  0  0  0  0  0  0  0
   11.7756   10.2554   20.8841 N   0  0  0  0  0  0  0  0  0  0  0  0
    8.9876   11.9370   19.8757 O   0  0  0  0  0  0  0  0  0  0  0  0
    6.0167    8.4478   21.1089 C   0  0  0  0  0  0  0  0  0  0  0  0
   11.0002   10.8890   20.0262 C   0  0  0  0  0  0  0  0  0  0  0  0
    2.1721    7.7393   20.0315 O   0  0  0  0  0  0  0  0  0  0  0  0
    9.1107   10.3880   21.3769 N   0  0  0  0  0  0  0  0  0  0  0  0
    3.9102    9.2008   20.3124 C   0  0  0  0  0  0  0  0  0  0  0  0
   12.7292   10.9960   18.4597 C   0  0  0  0  0  0  0  0  0  0  0  0
    9.3798    6.6793   23.6625 C   0  0  0  0  0  0  0  0  0  0  0  0
   14.7425   10.0739   19.0802 O   0  0  0  0  0  0  0  0  0  0  0  0
    5.1894    9.4673   20.7118 C   0  0  0  0  0  0  0  0  0  0  0  0
    7.3773    8.8224   21.4870 C   0  0  0  0  0  0  0  0  0  0  0  0
    8.4391    6.6439   21.0235 C   0  0  0  0  0  0  0  0  0  0  0  0
    9.6494   11.1353   20.4167 C   0  0  0  0  0  0  0  0  0  0  0  0
    8.1431    7.6829   21.9046 C   0  0  0  0  0  0  0  0  0  0  0  0
    7.7796   10.1314   21.5115 N   0  0  0  0  0  0  0  0  0  0  0  0
    9.2768    5.6183   21.4437 C   0  0  0  0  0  0  0  0  0  0  0  0
    8.6315    7.7322   23.1768 C   0  0  0  0  0  0  0  0  0  0  0  0
   13.0537    9.9821   20.5781 C   0  0  0  0  0  0  0  0  0  0  0  0
   10.3850    4.6575   23.2386 O   0  0  0  0  0  0  0  0  0  0  0  0
    4.2069    6.8450   20.7994 C   0  0  0  0  0  0  0  0  0  0  0  0
    3.0726   10.1043   19.8522 O   0  0  0  0  0  0  0  0  0  0  0  0
    5.5057    7.1196   21.1155 C   0  0  0  0  0  0  0  0  0  0  0  0
    7.0367   11.0229   21.9948 O   0  0  0  0  0  0  0  0  0  0  0  0
  1  8  4  0
  1 12  4  0
  2  9  1  0
  2 11  4  0
  2 25  4  0
  3 12  4  0
  3 14  1  0
  3 23  4  0
  4 13  4  0
  4 21  4  0
  4 24  1  0
  5  8  4  0
  5 23  4  0
  6 18  2  0
  7 15  4  0
  7 16  1  0
  7 27  4  0
  8 18  1  0
 10 18  1  0
 10 20  1  0
 11 15  4  0
 11 26  1  0
 13 22  4  0
 16 19  1  0
 16 20  2  0
 17 19  4  0
 17 21  4  0
 19 22  4  0
 20 28  1  0
 25 27  4  0
M  END
$$$$

 Created by Python create_sdf_string function

 28 30  0  0  0  0  0  0  0  0999 V2000
   11.4592   11.2893   18.7941 C   0  0  0  0  0  0  0  0  0  0  0  0
    3.4202    7.9009   20.3866 C   0  0  0  0  0  0  0  0  0  0  0  0
   13.5280   10.3522   19.3586 C   0  0  0  0  0  0  0  0  0  0  0  0
    9.6923    5.6468   22.7891 C   0  0  0  0  0  0  0  0  0  0  0  0
   11.7756   10.2554   20.8841 N   0  0  0  0  0  0  0  0  0  0  0  0
    8.9876   11.9370   19.8757 O   0  0  0  0  0  0  0  0  0  0  0  0
    6.0167    8.4478   21.1089 C   0  0  0  0  0  0  0  0  0  0  0  0
   11.0002   10.8890   20.0262 C   0  0  0  0  0  0  0  0  0  0  0  0
    2.1721    7.7393   20.0315 O   0  0  0  0  0  0  0  0  0  0  0  0
    9.1107   10.3880   21.3769 N   0  0  0  0  0  0  0  0  0  0  0  0
    3.9102    9.2008   20.3124 C   0  0  0  0  0  0  0  0  0  0  0  0
   12.7292   10.9960   18.4597 C   0  0  0  0  0  0  0  0  0  0  0  0
    9.3798    6.6793   23.6625 C   0  0  0  0  0  0  0  0  0  0  0  0
   14.7425   10.0739   19.0802 O   0  0  0  0  0  0  0  0  0  0  0  0
    5.1894    9.4673   20.7118 C   0  0  0  0  0  0  0  0  0  0  0  0
    7.3773    8.8224   21.4870 C   0  0  0  0  0  0  0  0  0  0  0  0
    8.4391    6.6439   21.0235 C   0  0  0  0  0  0  0  0  0  0  0  0
    9.6494   11.1353   20.4167 C   0  0  0  0  0  0  0  0  0  0  0  0
    8.1431    7.6829   21.9046 C   0  0  0  0  0  0  0  0  0  0  0  0
    7.7796   10.1314   21.5115 N   0  0  0  0  0  0  0  0  0  0  0  0
    9.2768    5.6183   21.4437 C   0  0  0  0  0  0  0  0  0  0  0  0
    8.6315    7.7322   23.1768 C   0  0  0  0  0  0  0  0  0  0  0  0
   13.0537    9.9821   20.5781 C   0  0  0  0  0  0  0  0  0  0  0  0
   10.3850    4.6575   23.2386 O   0  0  0  0  0  0  0  0  0  0  0  0
    4.2069    6.8450   20.7994 C   0  0  0  0  0  0  0  0  0  0  0  0
    3.0726   10.1043   19.8522 O   0  0  0  0  0  0  0  0  0  0  0  0
    5.5057    7.1196   21.1155 C   0  0  0  0  0  0  0  0  0  0  0  0
    7.0367   11.0229   21.9948 O   0  0  0  0  0  0  0  0  0  0  0  0
  1  8  4  0
  1 12  4  0
  2  9  1  0
  2 11  4  0
  2 25  4  0
  3 12  4  0
  3 14  1  0
  3 23  4  0
  4 13  4  0
  4 21  4  0
  4 24  1  0
  5  8  4  0
  5 23  4  0
  6 18  2  0
  7 15  4  0
  7 16  1  0
  7 27  4  0
  8 18  1  0
 10 18  1  0
 10 20  1  0
 11 15  4  0
 11 26  1  0
 13 22  4  0
 16 19  1  0
 16 20  2  0
 17 19  4  0
 17 21  4  0
 19 22  4  0
 20 28  1  0
 25 27  4  0
M  END
$$$$

 Created by Python create_sdf_string function

 28 30  0  0  0  0  0  0  0  0999 V2000
   11.4592   11.2893   18.7941 C   0  0  0  0  0  0  0  0  0  0  0  0
    3.4202    7.9009   20.3866 C   0  0  0  0  0  0  0  0  0  0  0  0
   13.5280   10.3522   19.3586 C   0  0  0  0  0  0  0  0  0  0  0  0
    9.6923    5.6468   22.7891 C   0  0  0  0  0  0  0  0  0  0  0  0
   11.7756   10.2554   20.8841 N   0  0  0  0  0  0  0  0  0  0  0  0
    8.9876   11.9370   19.8757 O   0  0  0  0  0  0  0  0  0  0  0  0
    6.0167    8.4478   21.1089 C   0  0  0  0  0  0  0  0  0  0  0  0
   11.0002   10.8890   20.0262 C   0  0  0  0  0  0  0  0  0  0  0  0
    2.1721    7.7393   20.0315 O   0  0  0  0  0  0  0  0  0  0  0  0
    9.1107   10.3880   21.3769 N   0  0  0  0  0  0  0  0  0  0  0  0
    3.9102    9.2008   20.3124 C   0  0  0  0  0  0  0  0  0  0  0  0
   12.7292   10.9960   18.4597 C   0  0  0  0  0  0  0  0  0  0  0  0
    9.3798    6.6793   23.6625 C   0  0  0  0  0  0  0  0  0  0  0  0
   14.7425   10.0739   19.0802 O   0  0  0  0  0  0  0  0  0  0  0  0
    5.1894    9.4673   20.7118 C   0  0  0  0  0  0  0  0  0  0  0  0
    7.3773    8.8224   21.4870 C   0  0  0  0  0  0  0  0  0  0  0  0
    8.4391    6.6439   21.0235 C   0  0  0  0  0  0  0  0  0  0  0  0
    9.6494   11.1353   20.4167 C   0  0  0  0  0  0  0  0  0  0  0  0
    8.1431    7.6829   21.9046 C   0  0  0  0  0  0  0  0  0  0  0  0
    7.7796   10.1314   21.5115 N   0  0  0  0  0  0  0  0  0  0  0  0
    9.2768    5.6183   21.4437 C   0  0  0  0  0  0  0  0  0  0  0  0
    8.6315    7.7322   23.1768 C   0  0  0  0  0  0  0  0  0  0  0  0
   13.0537    9.9821   20.5781 C   0  0  0  0  0  0  0  0  0  0  0  0
   10.3850    4.6575   23.2386 O   0  0  0  0  0  0  0  0  0  0  0  0
    4.2069    6.8450   20.7994 C   0  0  0  0  0  0  0  0  0  0  0  0
    3.0726   10.1043   19.8522 O   0  0  0  0  0  0  0  0  0  0  0  0
    5.5057    7.1196   21.1155 C   0  0  0  0  0  0  0  0  0  0  0  0
    7.0367   11.0229   21.9948 O   0  0  0  0  0  0  0  0  0  0  0  0
  1  8  4  0
  1 12  4  0
  2  9  1  0
  2 11  4  0
  2 25  4  0
  3 12  4  0
  3 14  1  0
  3 23  4  0
  4 13  4  0
  4 21  4  0
  4 24  1  0
  5  8  4  0
  5 23  4  0
  6 18  2  0
  7 15  4  0
  7 16  1  0
  7 27  4  0
  8 18  1  0
 10 18  1  0
 10 20  1  0
 11 15  4  0
 11 26  1  0
 13 22  4  0
 16 19  1  0
 16 20  2  0
 17 19  4  0
 17 21  4  0
 19 22  4  0
 20 28  1  0
 25 27  4  0
M  END
$$$$

 Created by Python create_sdf_string function

 28 30  0  0  0  0  0  0  0  0999 V2000
   11.4592   11.2893   18.7941 C   0  0  0  0  0  0  0  0  0  0  0  0
    3.4202    7.9009   20.3866 C   0  0  0  0  0  0  0  0  0  0  0  0
   13.5280   10.3522   19.3586 C   0  0  0  0  0  0  0  0  0  0  0  0
    9.6923    5.6468   22.7891 C   0  0  0  0  0  0  0  0  0  0  0  0
   11.7756   10.2554   20.8841 N   0  0  0  0  0  0  0  0  0  0  0  0
    8.9876   11.9370   19.8757 O   0  0  0  0  0  0  0  0  0  0  0  0
    6.0167    8.4478   21.1089 C   0  0  0  0  0  0  0  0  0  0  0  0
   11.0002   10.8890   20.0262 C   0  0  0  0  0  0  0  0  0  0  0  0
    2.1721    7.7393   20.0315 O   0  0  0  0  0  0  0  0  0  0  0  0
    9.1107   10.3880   21.3769 N   0  0  0  0  0  0  0  0  0  0  0  0
    3.9102    9.2008   20.3124 C   0  0  0  0  0  0  0  0  0  0  0  0
   12.7292   10.9960   18.4597 C   0  0  0  0  0  0  0  0  0  0  0  0
    9.3798    6.6793   23.6625 C   0  0  0  0  0  0  0  0  0  0  0  0
   14.7425   10.0739   19.0802 O   0  0  0  0  0  0  0  0  0  0  0  0
    5.1894    9.4673   20.7118 C   0  0  0  0  0  0  0  0  0  0  0  0
    7.3773    8.8224   21.4870 C   0  0  0  0  0  0  0  0  0  0  0  0
    8.4391    6.6439   21.0235 C   0  0  0  0  0  0  0  0  0  0  0  0
    9.6494   11.1353   20.4167 C   0  0  0  0  0  0  0  0  0  0  0  0
    8.1431    7.6829   21.9046 C   0  0  0  0  0  0  0  0  0  0  0  0
    7.7796   10.1314   21.5115 N   0  0  0  0  0  0  0  0  0  0  0  0
    9.2768    5.6183   21.4437 C   0  0  0  0  0  0  0  0  0  0  0  0
    8.6315    7.7322   23.1768 C   0  0  0  0  0  0  0  0  0  0  0  0
   13.0537    9.9821   20.5781 C   0  0  0  0  0  0  0  0  0  0  0  0
   10.3850    4.6575   23.2386 O   0  0  0  0  0  0  0  0  0  0  0  0
    4.2069    6.8450   20.7994 C   0  0  0  0  0  0  0  0  0  0  0  0
    3.0726   10.1043   19.8522 O   0  0  0  0  0  0  0  0  0  0  0  0
    5.5057    7.1196   21.1155 C   0  0  0  0  0  0  0  0  0  0  0  0
    7.0367   11.0229   21.9948 O   0  0  0  0  0  0  0  0  0  0  0  0
  1  8  4  0
  1 12  4  0
  2  9  1  0
  2 11  4  0
  2 25  4  0
  3 12  4  0
  3 14  1  0
  3 23  4  0
  4 13  4  0
  4 21  4  0
  4 24  1  0
  5  8  4  0
  5 23  4  0
  6 18  2  0
  7 15  4  0
  7 16  1  0
  7 27  4  0
  8 18  1  0
 10 18  1  0
 10 20  1  0
 11 15  4  0
 11 26  1  0
 13 22  4  0
 16 19  1  0
 16 20  2  0
 17 19  4  0
 17 21  4  0
 19 22  4  0
 20 28  1  0
 25 27  4  0
M  END
$$$$

 Created by Python create_sdf_string function

 28 30  0  0  0  0  0  0  0  0999 V2000
   11.4592   11.2893   18.7941 C   0  0  0  0  0  0  0  0  0  0  0  0
    3.4202    7.9009   20.3866 C   0  0  0  0  0  0  0  0  0  0  0  0
   13.5280   10.3522   19.3586 C   0  0  0  0  0  0  0  0  0  0  0  0
    9.6923    5.6468   22.7891 C   0  0  0  0  0  0  0  0  0  0  0  0
   11.7756   10.2554   20.8841 N   0  0  0  0  0  0  0  0  0  0  0  0
    8.9876   11.9370   19.8757 O   0  0  0  0  0  0  0  0  0  0  0  0
    6.0167    8.4478   21.1089 C   0  0  0  0  0  0  0  0  0  0  0  0
   11.0002   10.8890   20.0262 C   0  0  0  0  0  0  0  0  0  0  0  0
    2.1721    7.7393   20.0315 O   0  0  0  0  0  0  0  0  0  0  0  0
    9.1107   10.3880   21.3769 N   0  0  0  0  0  0  0  0  0  0  0  0
    3.9102    9.2008   20.3124 C   0  0  0  0  0  0  0  0  0  0  0  0
   12.7292   10.9960   18.4597 C   0  0  0  0  0  0  0  0  0  0  0  0
    9.3798    6.6793   23.6625 C   0  0  0  0  0  0  0  0  0  0  0  0
   14.7425   10.0739   19.0802 O   0  0  0  0  0  0  0  0  0  0  0  0
    5.1894    9.4673   20.7118 C   0  0  0  0  0  0  0  0  0  0  0  0
    7.3773    8.8224   21.4870 C   0  0  0  0  0  0  0  0  0  0  0  0
    8.4391    6.6439   21.0235 C   0  0  0  0  0  0  0  0  0  0  0  0
    9.6494   11.1353   20.4167 C   0  0  0  0  0  0  0  0  0  0  0  0
    8.1431    7.6829   21.9046 C   0  0  0  0  0  0  0  0  0  0  0  0
    7.7796   10.1314   21.5115 N   0  0  0  0  0  0  0  0  0  0  0  0
    9.2768    5.6183   21.4437 C   0  0  0  0  0  0  0  0  0  0  0  0
    8.6315    7.7322   23.1768 C   0  0  0  0  0  0  0  0  0  0  0  0
   13.0537    9.9821   20.5781 C   0  0  0  0  0  0  0  0  0  0  0  0
   10.3850    4.6575   23.2386 O   0  0  0  0  0  0  0  0  0  0  0  0
    4.2069    6.8450   20.7994 C   0  0  0  0  0  0  0  0  0  0  0  0
    3.0726   10.1043   19.8522 O   0  0  0  0  0  0  0  0  0  0  0  0
    5.5057    7.1196   21.1155 C   0  0  0  0  0  0  0  0  0  0  0  0
    7.0367   11.0229   21.9948 O   0  0  0  0  0  0  0  0  0  0  0  0
  1  8  4  0
  1 12  4  0
  2  9  1  0
  2 11  4  0
  2 25  4  0
  3 12  4  0
  3 14  1  0
  3 23  4  0
  4 13  4  0
  4 21  4  0
  4 24  1  0
  5  8  4  0
  5 23  4  0
  6 18  2  0
  7 15  4  0
  7 16  1  0
  7 27  4  0
  8 18  1  0
 10 18  1  0
 10 20  1  0
 11 15  4  0
 11 26  1  0
 13 22  4  0
 16 19  1  0
 16 20  2  0
 17 19  4  0
 17 21  4  0
 19 22  4  0
 20 28  1  0
 25 27  4  0
M  END
$$$$

 Created by Python create_sdf_string function

 28 30  0  0  0  0  0  0  0  0999 V2000
   11.4592   11.2893   18.7941 C   0  0  0  0  0  0  0  0  0  0  0  0
    3.4202    7.9009   20.3866 C   0  0  0  0  0  0  0  0  0  0  0  0
   13.5280   10.3522   19.3586 C   0  0  0  0  0  0  0  0  0  0  0  0
    9.6923    5.6468   22.7891 C   0  0  0  0  0  0  0  0  0  0  0  0
   11.7756   10.2554   20.8841 N   0  0  0  0  0  0  0  0  0  0  0  0
    8.9876   11.9370   19.8757 O   0  0  0  0  0  0  0  0  0  0  0  0
    6.0167    8.4478   21.1089 C   0  0  0  0  0  0  0  0  0  0  0  0
   11.0002   10.8890   20.0262 C   0  0  0  0  0  0  0  0  0  0  0  0
    2.1721    7.7393   20.0315 O   0  0  0  0  0  0  0  0  0  0  0  0
    9.1107   10.3880   21.3769 N   0  0  0  0  0  0  0  0  0  0  0  0
    3.9102    9.2008   20.3124 C   0  0  0  0  0  0  0  0  0  0  0  0
   12.7292   10.9960   18.4597 C   0  0  0  0  0  0  0  0  0  0  0  0
    9.3798    6.6793   23.6625 C   0  0  0  0  0  0  0  0  0  0  0  0
   14.7425   10.0739   19.0802 O   0  0  0  0  0  0  0  0  0  0  0  0
    5.1894    9.4673   20.7118 C   0  0  0  0  0  0  0  0  0  0  0  0
    7.3773    8.8224   21.4870 C   0  0  0  0  0  0  0  0  0  0  0  0
    8.4391    6.6439   21.0235 C   0  0  0  0  0  0  0  0  0  0  0  0
    9.6494   11.1353   20.4167 C   0  0  0  0  0  0  0  0  0  0  0  0
    8.1431    7.6829   21.9046 C   0  0  0  0  0  0  0  0  0  0  0  0
    7.7796   10.1314   21.5115 N   0  0  0  0  0  0  0  0  0  0  0  0
    9.2768    5.6183   21.4437 C   0  0  0  0  0  0  0  0  0  0  0  0
    8.6315    7.7322   23.1768 C   0  0  0  0  0  0  0  0  0  0  0  0
   13.0537    9.9821   20.5781 C   0  0  0  0  0  0  0  0  0  0  0  0
   10.3850    4.6575   23.2386 O   0  0  0  0  0  0  0  0  0  0  0  0
    4.2069    6.8450   20.7994 C   0  0  0  0  0  0  0  0  0  0  0  0
    3.0726   10.1043   19.8522 O   0  0  0  0  0  0  0  0  0  0  0  0
    5.5057    7.1196   21.1155 C   0  0  0  0  0  0  0  0  0  0  0  0
    7.0367   11.0229   21.9948 O   0  0  0  0  0  0  0  0  0  0  0  0
  1  8  4  0
  1 12  4  0
  2  9  1  0
  2 11  4  0
  2 25  4  0
  3 12  4  0
  3 14  1  0
  3 23  4  0
  4 13  4  0
  4 21  4  0
  4 24  1  0
  5  8  4  0
  5 23  4  0
  6 18  2  0
  7 15  4  0
  7 16  1  0
  7 27  4  0
  8 18  1  0
 10 18  1  0
 10 20  1  0
 11 15  4  0
 11 26  1  0
 13 22  4  0
 16 19  1  0
 16 20  2  0
 17 19  4  0
 17 21  4  0
 19 22  4  0
 20 28  1  0
 25 27  4  0
M  END
$$$$

 Created by Python create_sdf_string function

 28 30  0  0  0  0  0  0  0  0999 V2000
   11.4592   11.2893   18.7941 C   0  0  0  0  0  0  0  0  0  0  0  0
    3.4202    7.9009   20.3866 C   0  0  0  0  0  0  0  0  0  0  0  0
   13.5280   10.3522   19.3586 C   0  0  0  0  0  0  0  0  0  0  0  0
    9.6923    5.6468   22.7891 C   0  0  0  0  0  0  0  0  0  0  0  0
   11.7756   10.2554   20.8841 N   0  0  0  0  0  0  0  0  0  0  0  0
    8.9876   11.9370   19.8757 O   0  0  0  0  0  0  0  0  0  0  0  0
    6.0167    8.4478   21.1089 C   0  0  0  0  0  0  0  0  0  0  0  0
   11.0002   10.8890   20.0262 C   0  0  0  0  0  0  0  0  0  0  0  0
    2.1721    7.7393   20.0315 O   0  0  0  0  0  0  0  0  0  0  0  0
    9.1107   10.3880   21.3769 N   0  0  0  0  0  0  0  0  0  0  0  0
    3.9102    9.2008   20.3124 C   0  0  0  0  0  0  0  0  0  0  0  0
   12.7292   10.9960   18.4597 C   0  0  0  0  0  0  0  0  0  0  0  0
    9.3798    6.6793   23.6625 C   0  0  0  0  0  0  0  0  0  0  0  0
   14.7425   10.0739   19.0802 O   0  0  0  0  0  0  0  0  0  0  0  0
    5.1894    9.4673   20.7118 C   0  0  0  0  0  0  0  0  0  0  0  0
    7.3773    8.8224   21.4870 C   0  0  0  0  0  0  0  0  0  0  0  0
    8.4391    6.6439   21.0235 C   0  0  0  0  0  0  0  0  0  0  0  0
    9.6494   11.1353   20.4167 C   0  0  0  0  0  0  0  0  0  0  0  0
    8.1431    7.6829   21.9046 C   0  0  0  0  0  0  0  0  0  0  0  0
    7.7796   10.1314   21.5115 N   0  0  0  0  0  0  0  0  0  0  0  0
    9.2768    5.6183   21.4437 C   0  0  0  0  0  0  0  0  0  0  0  0
    8.6315    7.7322   23.1768 C   0  0  0  0  0  0  0  0  0  0  0  0
   13.0537    9.9821   20.5781 C   0  0  0  0  0  0  0  0  0  0  0  0
   10.3850    4.6575   23.2386 O   0  0  0  0  0  0  0  0  0  0  0  0
    4.2069    6.8450   20.7994 C   0  0  0  0  0  0  0  0  0  0  0  0
    3.0726   10.1043   19.8522 O   0  0  0  0  0  0  0  0  0  0  0  0
    5.5057    7.1196   21.1155 C   0  0  0  0  0  0  0  0  0  0  0  0
    7.0367   11.0229   21.9948 O   0  0  0  0  0  0  0  0  0  0  0  0
  1  8  4  0
  1 12  4  0
  2  9  1  0
  2 11  4  0
  2 25  4  0
  3 12  4  0
  3 14  1  0
  3 23  4  0
  4 13  4  0
  4 21  4  0
  4 24  1  0
  5  8  4  0
  5 23  4  0
  6 18  2  0
  7 15  4  0
  7 16  1  0
  7 27  4  0
  8 18  1  0
 10 18  1  0
 10 20  1  0
 11 15  4  0
 11 26  1  0
 13 22  4  0
 16 19  1  0
 16 20  2  0
 17 19  4  0
 17 21  4  0
 19 22  4  0
 20 28  1  0
 25 27  4  0
M  END
$$$$

 Created by Python create_sdf_string function

 28 30  0  0  0  0  0  0  0  0999 V2000
   11.4592   11.2893   18.7941 C   0  0  0  0  0  0  0  0  0  0  0  0
    3.4202    7.9009   20.3866 C   0  0  0  0  0  0  0  0  0  0  0  0
   13.5280   10.3522   19.3586 C   0  0  0  0  0  0  0  0  0  0  0  0
    9.6923    5.6468   22.7891 C   0  0  0  0  0  0  0  0  0  0  0  0
   11.7756   10.2554   20.8841 N   0  0  0  0  0  0  0  0  0  0  0  0
    8.9876   11.9370   19.8757 O   0  0  0  0  0  0  0  0  0  0  0  0
    6.0167    8.4478   21.1089 C   0  0  0  0  0  0  0  0  0  0  0  0
   11.0002   10.8890   20.0262 C   0  0  0  0  0  0  0  0  0  0  0  0
    2.1721    7.7393   20.0315 O   0  0  0  0  0  0  0  0  0  0  0  0
    9.1107   10.3880   21.3769 N   0  0  0  0  0  0  0  0  0  0  0  0
    3.9102    9.2008   20.3124 C   0  0  0  0  0  0  0  0  0  0  0  0
   12.7292   10.9960   18.4597 C   0  0  0  0  0  0  0  0  0  0  0  0
    9.3798    6.6793   23.6625 C   0  0  0  0  0  0  0  0  0  0  0  0
   14.7425   10.0739   19.0802 O   0  0  0  0  0  0  0  0  0  0  0  0
    5.1894    9.4673   20.7118 C   0  0  0  0  0  0  0  0  0  0  0  0
    7.3773    8.8224   21.4870 C   0  0  0  0  0  0  0  0  0  0  0  0
    8.4391    6.6439   21.0235 C   0  0  0  0  0  0  0  0  0  0  0  0
    9.6494   11.1353   20.4167 C   0  0  0  0  0  0  0  0  0  0  0  0
    8.1431    7.6829   21.9046 C   0  0  0  0  0  0  0  0  0  0  0  0
    7.7796   10.1314   21.5115 N   0  0  0  0  0  0  0  0  0  0  0  0
    9.2768    5.6183   21.4437 C   0  0  0  0  0  0  0  0  0  0  0  0
    8.6315    7.7322   23.1768 C   0  0  0  0  0  0  0  0  0  0  0  0
   13.0537    9.9821   20.5781 C   0  0  0  0  0  0  0  0  0  0  0  0
   10.3850    4.6575   23.2386 O   0  0  0  0  0  0  0  0  0  0  0  0
    4.2069    6.8450   20.7994 C   0  0  0  0  0  0  0  0  0  0  0  0
    3.0726   10.1043   19.8522 O   0  0  0  0  0  0  0  0  0  0  0  0
    5.5057    7.1196   21.1155 C   0  0  0  0  0  0  0  0  0  0  0  0
    7.0367   11.0229   21.9948 O   0  0  0  0  0  0  0  0  0  0  0  0
  1  8  4  0
  1 12  4  0
  2  9  1  0
  2 11  4  0
  2 25  4  0
  3 12  4  0
  3 14  1  0
  3 23  4  0
  4 13  4  0
  4 21  4  0
  4 24  1  0
  5  8  4  0
  5 23  4  0
  6 18  2  0
  7 15  4  0
  7 16  1  0
  7 27  4  0
  8 18  1  0
 10 18  1  0
 10 20  1  0
 11 15  4  0
 11 26  1  0
 13 22  4  0
 16 19  1  0
 16 20  2  0
 17 19  4  0
 17 21  4  0
 19 22  4  0
 20 28  1  0
 25 27  4  0
M  END
$$$$

 Created by Python create_sdf_string function

 28 30  0  0  0  0  0  0  0  0999 V2000
   11.4592   11.2893   18.7941 C   0  0  0  0  0  0  0  0  0  0  0  0
    3.4202    7.9009   20.3866 C   0  0  0  0  0  0  0  0  0  0  0  0
   13.5280   10.3522   19.3586 C   0  0  0  0  0  0  0  0  0  0  0  0
    9.6923    5.6468   22.7891 C   0  0  0  0  0  0  0  0  0  0  0  0
   11.7756   10.2554   20.8841 N   0  0  0  0  0  0  0  0  0  0  0  0
    8.9876   11.9370   19.8757 O   0  0  0  0  0  0  0  0  0  0  0  0
    6.0167    8.4478   21.1089 C   0  0  0  0  0  0  0  0  0  0  0  0
   11.0002   10.8890   20.0262 C   0  0  0  0  0  0  0  0  0  0  0  0
    2.1721    7.7393   20.0315 O   0  0  0  0  0  0  0  0  0  0  0  0
    9.1107   10.3880   21.3769 N   0  0  0  0  0  0  0  0  0  0  0  0
    3.9102    9.2008   20.3124 C   0  0  0  0  0  0  0  0  0  0  0  0
   12.7292   10.9960   18.4597 C   0  0  0  0  0  0  0  0  0  0  0  0
    9.3798    6.6793   23.6625 C   0  0  0  0  0  0  0  0  0  0  0  0
   14.7425   10.0739   19.0802 O   0  0  0  0  0  0  0  0  0  0  0  0
    5.1894    9.4673   20.7118 C   0  0  0  0  0  0  0  0  0  0  0  0
    7.3773    8.8224   21.4870 C   0  0  0  0  0  0  0  0  0  0  0  0
    8.4391    6.6439   21.0235 C   0  0  0  0  0  0  0  0  0  0  0  0
    9.6494   11.1353   20.4167 C   0  0  0  0  0  0  0  0  0  0  0  0
    8.1431    7.6829   21.9046 C   0  0  0  0  0  0  0  0  0  0  0  0
    7.7796   10.1314   21.5115 N   0  0  0  0  0  0  0  0  0  0  0  0
    9.2768    5.6183   21.4437 C   0  0  0  0  0  0  0  0  0  0  0  0
    8.6315    7.7322   23.1768 C   0  0  0  0  0  0  0  0  0  0  0  0
   13.0537    9.9821   20.5781 C   0  0  0  0  0  0  0  0  0  0  0  0
   10.3850    4.6575   23.2386 O   0  0  0  0  0  0  0  0  0  0  0  0
    4.2069    6.8450   20.7994 C   0  0  0  0  0  0  0  0  0  0  0  0
    3.0726   10.1043   19.8522 O   0  0  0  0  0  0  0  0  0  0  0  0
    5.5057    7.1196   21.1155 C   0  0  0  0  0  0  0  0  0  0  0  0
    7.0367   11.0229   21.9948 O   0  0  0  0  0  0  0  0  0  0  0  0
  1  8  4  0
  1 12  4  0
  2  9  1  0
  2 11  4  0
  2 25  4  0
  3 12  4  0
  3 14  1  0
  3 23  4  0
  4 13  4  0
  4 21  4  0
  4 24  1  0
  5  8  4  0
  5 23  4  0
  6 18  2  0
  7 15  4  0
  7 16  1  0
  7 27  4  0
  8 18  1  0
 10 18  1  0
 10 20  1  0
 11 15  4  0
 11 26  1  0
 13 22  4  0
 16 19  1  0
 16 20  2  0
 17 19  4  0
 17 21  4  0
 19 22  4  0
 20 28  1  0
 25 27  4  0
M  END
$$$$

 Created by Python create_sdf_string function

 28 30  0  0  0  0  0  0  0  0999 V2000
   11.4592   11.2893   18.7941 C   0  0  0  0  0  0  0  0  0  0  0  0
    3.4202    7.9009   20.3866 C   0  0  0  0  0  0  0  0  0  0  0  0
   13.5280   10.3522   19.3586 C   0  0  0  0  0  0  0  0  0  0  0  0
    9.6923    5.6468   22.7891 C   0  0  0  0  0  0  0  0  0  0  0  0
   11.7756   10.2554   20.8841 N   0  0  0  0  0  0  0  0  0  0  0  0
    8.9876   11.9370   19.8757 O   0  0  0  0  0  0  0  0  0  0  0  0
    6.0167    8.4478   21.1089 C   0  0  0  0  0  0  0  0  0  0  0  0
   11.0002   10.8890   20.0262 C   0  0  0  0  0  0  0  0  0  0  0  0
    2.1721    7.7393   20.0315 O   0  0  0  0  0  0  0  0  0  0  0  0
    9.1107   10.3880   21.3769 N   0  0  0  0  0  0  0  0  0  0  0  0
    3.9102    9.2008   20.3124 C   0  0  0  0  0  0  0  0  0  0  0  0
   12.7292   10.9960   18.4597 C   0  0  0  0  0  0  0  0  0  0  0  0
    9.3798    6.6793   23.6625 C   0  0  0  0  0  0  0  0  0  0  0  0
   14.7425   10.0739   19.0802 O   0  0  0  0  0  0  0  0  0  0  0  0
    5.1894    9.4673   20.7118 C   0  0  0  0  0  0  0  0  0  0  0  0
    7.3773    8.8224   21.4870 C   0  0  0  0  0  0  0  0  0  0  0  0
    8.4391    6.6439   21.0235 C   0  0  0  0  0  0  0  0  0  0  0  0
    9.6494   11.1353   20.4167 C   0  0  0  0  0  0  0  0  0  0  0  0
    8.1431    7.6829   21.9046 C   0  0  0  0  0  0  0  0  0  0  0  0
    7.7796   10.1314   21.5115 N   0  0  0  0  0  0  0  0  0  0  0  0
    9.2768    5.6183   21.4437 C   0  0  0  0  0  0  0  0  0  0  0  0
    8.6315    7.7322   23.1768 C   0  0  0  0  0  0  0  0  0  0  0  0
   13.0537    9.9821   20.5781 C   0  0  0  0  0  0  0  0  0  0  0  0
   10.3850    4.6575   23.2386 O   0  0  0  0  0  0  0  0  0  0  0  0
    4.2069    6.8450   20.7994 C   0  0  0  0  0  0  0  0  0  0  0  0
    3.0726   10.1043   19.8522 O   0  0  0  0  0  0  0  0  0  0  0  0
    5.5057    7.1196   21.1155 C   0  0  0  0  0  0  0  0  0  0  0  0
    7.0367   11.0229   21.9948 O   0  0  0  0  0  0  0  0  0  0  0  0
  1  8  4  0
  1 12  4  0
  2  9  1  0
  2 11  4  0
  2 25  4  0
  3 12  4  0
  3 14  1  0
  3 23  4  0
  4 13  4  0
  4 21  4  0
  4 24  1  0
  5  8  4  0
  5 23  4  0
  6 18  2  0
  7 15  4  0
  7 16  1  0
  7 27  4  0
  8 18  1  0
 10 18  1  0
 10 20  1  0
 11 15  4  0
 11 26  1  0
 13 22  4  0
 16 19  1  0
 16 20  2  0
 17 19  4  0
 17 21  4  0
 19 22  4  0
 20 28  1  0
 25 27  4  0
M  END
$$$$

 Created by Python create_sdf_string function

 28 30  0  0  0  0  0  0  0  0999 V2000
   11.4592   11.2893   18.7941 C   0  0  0  0  0  0  0  0  0  0  0  0
    3.4202    7.9009   20.3866 C   0  0  0  0  0  0  0  0  0  0  0  0
   13.5280   10.3522   19.3586 C   0  0  0  0  0  0  0  0  0  0  0  0
    9.6923    5.6468   22.7891 C   0  0  0  0  0  0  0  0  0  0  0  0
   11.7756   10.2554   20.8841 N   0  0  0  0  0  0  0  0  0  0  0  0
    8.9876   11.9370   19.8757 O   0  0  0  0  0  0  0  0  0  0  0  0
    6.0167    8.4478   21.1089 C   0  0  0  0  0  0  0  0  0  0  0  0
   11.0002   10.8890   20.0262 C   0  0  0  0  0  0  0  0  0  0  0  0
    2.1721    7.7393   20.0315 O   0  0  0  0  0  0  0  0  0  0  0  0
    9.1107   10.3880   21.3769 N   0  0  0  0  0  0  0  0  0  0  0  0
    3.9102    9.2008   20.3124 C   0  0  0  0  0  0  0  0  0  0  0  0
   12.7292   10.9960   18.4597 C   0  0  0  0  0  0  0  0  0  0  0  0
    9.3798    6.6793   23.6625 C   0  0  0  0  0  0  0  0  0  0  0  0
   14.7425   10.0739   19.0802 O   0  0  0  0  0  0  0  0  0  0  0  0
    5.1894    9.4673   20.7118 C   0  0  0  0  0  0  0  0  0  0  0  0
    7.3773    8.8224   21.4870 C   0  0  0  0  0  0  0  0  0  0  0  0
    8.4391    6.6439   21.0235 C   0  0  0  0  0  0  0  0  0  0  0  0
    9.6494   11.1353   20.4167 C   0  0  0  0  0  0  0  0  0  0  0  0
    8.1431    7.6829   21.9046 C   0  0  0  0  0  0  0  0  0  0  0  0
    7.7796   10.1314   21.5115 N   0  0  0  0  0  0  0  0  0  0  0  0
    9.2768    5.6183   21.4437 C   0  0  0  0  0  0  0  0  0  0  0  0
    8.6315    7.7322   23.1768 C   0  0  0  0  0  0  0  0  0  0  0  0
   13.0537    9.9821   20.5781 C   0  0  0  0  0  0  0  0  0  0  0  0
   10.3850    4.6575   23.2386 O   0  0  0  0  0  0  0  0  0  0  0  0
    4.2069    6.8450   20.7994 C   0  0  0  0  0  0  0  0  0  0  0  0
    3.0726   10.1043   19.8522 O   0  0  0  0  0  0  0  0  0  0  0  0
    5.5057    7.1196   21.1155 C   0  0  0  0  0  0  0  0  0  0  0  0
    7.0367   11.0229   21.9948 O   0  0  0  0  0  0  0  0  0  0  0  0
  1  8  4  0
  1 12  4  0
  2  9  1  0
  2 11  4  0
  2 25  4  0
  3 12  4  0
  3 14  1  0
  3 23  4  0
  4 13  4  0
  4 21  4  0
  4 24  1  0
  5  8  4  0
  5 23  4  0
  6 18  2  0
  7 15  4  0
  7 16  1  0
  7 27  4  0
  8 18  1  0
 10 18  1  0
 10 20  1  0
 11 15  4  0
 11 26  1  0
 13 22  4  0
 16 19  1  0
 16 20  2  0
 17 19  4  0
 17 21  4  0
 19 22  4  0
 20 28  1  0
 25 27  4  0
M  END
$$$$

 Created by Python create_sdf_string function

 28 30  0  0  0  0  0  0  0  0999 V2000
   11.4592   11.2893   18.7941 C   0  0  0  0  0  0  0  0  0  0  0  0
    3.4202    7.9009   20.3866 C   0  0  0  0  0  0  0  0  0  0  0  0
   13.5280   10.3522   19.3586 C   0  0  0  0  0  0  0  0  0  0  0  0
    9.6923    5.6468   22.7891 C   0  0  0  0  0  0  0  0  0  0  0  0
   11.7756   10.2554   20.8841 N   0  0  0  0  0  0  0  0  0  0  0  0
    8.9876   11.9370   19.8757 O   0  0  0  0  0  0  0  0  0  0  0  0
    6.0167    8.4478   21.1089 C   0  0  0  0  0  0  0  0  0  0  0  0
   11.0002   10.8890   20.0262 C   0  0  0  0  0  0  0  0  0  0  0  0
    2.1721    7.7393   20.0315 O   0  0  0  0  0  0  0  0  0  0  0  0
    9.1107   10.3880   21.3769 N   0  0  0  0  0  0  0  0  0  0  0  0
    3.9102    9.2008   20.3124 C   0  0  0  0  0  0  0  0  0  0  0  0
   12.7292   10.9960   18.4597 C   0  0  0  0  0  0  0  0  0  0  0  0
    9.3798    6.6793   23.6625 C   0  0  0  0  0  0  0  0  0  0  0  0
   14.7425   10.0739   19.0802 O   0  0  0  0  0  0  0  0  0  0  0  0
    5.1894    9.4673   20.7118 C   0  0  0  0  0  0  0  0  0  0  0  0
    7.3773    8.8224   21.4870 C   0  0  0  0  0  0  0  0  0  0  0  0
    8.4391    6.6439   21.0235 C   0  0  0  0  0  0  0  0  0  0  0  0
    9.6494   11.1353   20.4167 C   0  0  0  0  0  0  0  0  0  0  0  0
    8.1431    7.6829   21.9046 C   0  0  0  0  0  0  0  0  0  0  0  0
    7.7796   10.1314   21.5115 N   0  0  0  0  0  0  0  0  0  0  0  0
    9.2768    5.6183   21.4437 C   0  0  0  0  0  0  0  0  0  0  0  0
    8.6315    7.7322   23.1768 C   0  0  0  0  0  0  0  0  0  0  0  0
   13.0537    9.9821   20.5781 C   0  0  0  0  0  0  0  0  0  0  0  0
   10.3850    4.6575   23.2386 O   0  0  0  0  0  0  0  0  0  0  0  0
    4.2069    6.8450   20.7994 C   0  0  0  0  0  0  0  0  0  0  0  0
    3.0726   10.1043   19.8522 O   0  0  0  0  0  0  0  0  0  0  0  0
    5.5057    7.1196   21.1155 C   0  0  0  0  0  0  0  0  0  0  0  0
    7.0367   11.0229   21.9948 O   0  0  0  0  0  0  0  0  0  0  0  0
  1  8  4  0
  1 12  4  0
  2  9  1  0
  2 11  4  0
  2 25  4  0
  3 12  4  0
  3 14  1  0
  3 23  4  0
  4 13  4  0
  4 21  4  0
  4 24  1  0
  5  8  4  0
  5 23  4  0
  6 18  2  0
  7 15  4  0
  7 16  1  0
  7 27  4  0
  8 18  1  0
 10 18  1  0
 10 20  1  0
 11 15  4  0
 11 26  1  0
 13 22  4  0
 16 19  1  0
 16 20  2  0
 17 19  4  0
 17 21  4  0
 19 22  4  0
 20 28  1  0
 25 27  4  0
M  END
$$$$

 Created by Python create_sdf_string function

 28 30  0  0  0  0  0  0  0  0999 V2000
   11.4592   11.2893   18.7941 C   0  0  0  0  0  0  0  0  0  0  0  0
    3.4202    7.9009   20.3866 C   0  0  0  0  0  0  0  0  0  0  0  0
   13.5280   10.3522   19.3586 C   0  0  0  0  0  0  0  0  0  0  0  0
    9.6923    5.6468   22.7891 C   0  0  0  0  0  0  0  0  0  0  0  0
   11.7756   10.2554   20.8841 N   0  0  0  0  0  0  0  0  0  0  0  0
    8.9876   11.9370   19.8757 O   0  0  0  0  0  0  0  0  0  0  0  0
    6.0167    8.4478   21.1089 C   0  0  0  0  0  0  0  0  0  0  0  0
   11.0002   10.8890   20.0262 C   0  0  0  0  0  0  0  0  0  0  0  0
    2.1721    7.7393   20.0315 O   0  0  0  0  0  0  0  0  0  0  0  0
    9.1107   10.3880   21.3769 N   0  0  0  0  0  0  0  0  0  0  0  0
    3.9102    9.2008   20.3124 C   0  0  0  0  0  0  0  0  0  0  0  0
   12.7292   10.9960   18.4597 C   0  0  0  0  0  0  0  0  0  0  0  0
    9.3798    6.6793   23.6625 C   0  0  0  0  0  0  0  0  0  0  0  0
   14.7425   10.0739   19.0802 O   0  0  0  0  0  0  0  0  0  0  0  0
    5.1894    9.4673   20.7118 C   0  0  0  0  0  0  0  0  0  0  0  0
    7.3773    8.8224   21.4870 C   0  0  0  0  0  0  0  0  0  0  0  0
    8.4391    6.6439   21.0235 C   0  0  0  0  0  0  0  0  0  0  0  0
    9.6494   11.1353   20.4167 C   0  0  0  0  0  0  0  0  0  0  0  0
    8.1431    7.6829   21.9046 C   0  0  0  0  0  0  0  0  0  0  0  0
    7.7796   10.1314   21.5115 N   0  0  0  0  0  0  0  0  0  0  0  0
    9.2768    5.6183   21.4437 C   0  0  0  0  0  0  0  0  0  0  0  0
    8.6315    7.7322   23.1768 C   0  0  0  0  0  0  0  0  0  0  0  0
   13.0537    9.9821   20.5781 C   0  0  0  0  0  0  0  0  0  0  0  0
   10.3850    4.6575   23.2386 O   0  0  0  0  0  0  0  0  0  0  0  0
    4.2069    6.8450   20.7994 C   0  0  0  0  0  0  0  0  0  0  0  0
    3.0726   10.1043   19.8522 O   0  0  0  0  0  0  0  0  0  0  0  0
    5.5057    7.1196   21.1155 C   0  0  0  0  0  0  0  0  0  0  0  0
    7.0367   11.0229   21.9948 O   0  0  0  0  0  0  0  0  0  0  0  0
  1  8  4  0
  1 12  4  0
  2  9  1  0
  2 11  4  0
  2 25  4  0
  3 12  4  0
  3 14  1  0
  3 23  4  0
  4 13  4  0
  4 21  4  0
  4 24  1  0
  5  8  4  0
  5 23  4  0
  6 18  2  0
  7 15  4  0
  7 16  1  0
  7 27  4  0
  8 18  1  0
 10 18  1  0
 10 20  1  0
 11 15  4  0
 11 26  1  0
 13 22  4  0
 16 19  1  0
 16 20  2  0
 17 19  4  0
 17 21  4  0
 19 22  4  0
 20 28  1  0
 25 27  4  0
M  END
$$$$

 Created by Python create_sdf_string function

 28 30  0  0  0  0  0  0  0  0999 V2000
   11.4592   11.2893   18.7941 C   0  0  0  0  0  0  0  0  0  0  0  0
    3.4202    7.9009   20.3866 C   0  0  0  0  0  0  0  0  0  0  0  0
   13.5280   10.3522   19.3586 C   0  0  0  0  0  0  0  0  0  0  0  0
    9.6923    5.6468   22.7891 C   0  0  0  0  0  0  0  0  0  0  0  0
   11.7756   10.2554   20.8841 N   0  0  0  0  0  0  0  0  0  0  0  0
    8.9876   11.9370   19.8757 O   0  0  0  0  0  0  0  0  0  0  0  0
    6.0167    8.4478   21.1089 C   0  0  0  0  0  0  0  0  0  0  0  0
   11.0002   10.8890   20.0262 C   0  0  0  0  0  0  0  0  0  0  0  0
    2.1721    7.7393   20.0315 O   0  0  0  0  0  0  0  0  0  0  0  0
    9.1107   10.3880   21.3769 N   0  0  0  0  0  0  0  0  0  0  0  0
    3.9102    9.2008   20.3124 C   0  0  0  0  0  0  0  0  0  0  0  0
   12.7292   10.9960   18.4597 C   0  0  0  0  0  0  0  0  0  0  0  0
    9.3798    6.6793   23.6625 C   0  0  0  0  0  0  0  0  0  0  0  0
   14.7425   10.0739   19.0802 O   0  0  0  0  0  0  0  0  0  0  0  0
    5.1894    9.4673   20.7118 C   0  0  0  0  0  0  0  0  0  0  0  0
    7.3773    8.8224   21.4870 C   0  0  0  0  0  0  0  0  0  0  0  0
    8.4391    6.6439   21.0235 C   0  0  0  0  0  0  0  0  0  0  0  0
    9.6494   11.1353   20.4167 C   0  0  0  0  0  0  0  0  0  0  0  0
    8.1431    7.6829   21.9046 C   0  0  0  0  0  0  0  0  0  0  0  0
    7.7796   10.1314   21.5115 N   0  0  0  0  0  0  0  0  0  0  0  0
    9.2768    5.6183   21.4437 C   0  0  0  0  0  0  0  0  0  0  0  0
    8.6315    7.7322   23.1768 C   0  0  0  0  0  0  0  0  0  0  0  0
   13.0537    9.9821   20.5781 C   0  0  0  0  0  0  0  0  0  0  0  0
   10.3850    4.6575   23.2386 O   0  0  0  0  0  0  0  0  0  0  0  0
    4.2069    6.8450   20.7994 C   0  0  0  0  0  0  0  0  0  0  0  0
    3.0726   10.1043   19.8522 O   0  0  0  0  0  0  0  0  0  0  0  0
    5.5057    7.1196   21.1155 C   0  0  0  0  0  0  0  0  0  0  0  0
    7.0367   11.0229   21.9948 O   0  0  0  0  0  0  0  0  0  0  0  0
  1  8  4  0
  1 12  4  0
  2  9  1  0
  2 11  4  0
  2 25  4  0
  3 12  4  0
  3 14  1  0
  3 23  4  0
  4 13  4  0
  4 21  4  0
  4 24  1  0
  5  8  4  0
  5 23  4  0
  6 18  2  0
  7 15  4  0
  7 16  1  0
  7 27  4  0
  8 18  1  0
 10 18  1  0
 10 20  1  0
 11 15  4  0
 11 26  1  0
 13 22  4  0
 16 19  1  0
 16 20  2  0
 17 19  4  0
 17 21  4  0
 19 22  4  0
 20 28  1  0
 25 27  4  0
M  END
$$$$

 Created by Python create_sdf_string function

 28 30  0  0  0  0  0  0  0  0999 V2000
   11.4592   11.2893   18.7941 C   0  0  0  0  0  0  0  0  0  0  0  0
    3.4202    7.9009   20.3866 C   0  0  0  0  0  0  0  0  0  0  0  0
   13.5280   10.3522   19.3586 C   0  0  0  0  0  0  0  0  0  0  0  0
    9.6923    5.6468   22.7891 C   0  0  0  0  0  0  0  0  0  0  0  0
   11.7756   10.2554   20.8841 N   0  0  0  0  0  0  0  0  0  0  0  0
    8.9876   11.9370   19.8757 O   0  0  0  0  0  0  0  0  0  0  0  0
    6.0167    8.4478   21.1089 C   0  0  0  0  0  0  0  0  0  0  0  0
   11.0002   10.8890   20.0262 C   0  0  0  0  0  0  0  0  0  0  0  0
    2.1721    7.7393   20.0315 O   0  0  0  0  0  0  0  0  0  0  0  0
    9.1107   10.3880   21.3769 N   0  0  0  0  0  0  0  0  0  0  0  0
    3.9102    9.2008   20.3124 C   0  0  0  0  0  0  0  0  0  0  0  0
   12.7292   10.9960   18.4597 C   0  0  0  0  0  0  0  0  0  0  0  0
    9.3798    6.6793   23.6625 C   0  0  0  0  0  0  0  0  0  0  0  0
   14.7425   10.0739   19.0802 O   0  0  0  0  0  0  0  0  0  0  0  0
    5.1894    9.4673   20.7118 C   0  0  0  0  0  0  0  0  0  0  0  0
    7.3773    8.8224   21.4870 C   0  0  0  0  0  0  0  0  0  0  0  0
    8.4391    6.6439   21.0235 C   0  0  0  0  0  0  0  0  0  0  0  0
    9.6494   11.1353   20.4167 C   0  0  0  0  0  0  0  0  0  0  0  0
    8.1431    7.6829   21.9046 C   0  0  0  0  0  0  0  0  0  0  0  0
    7.7796   10.1314   21.5115 N   0  0  0  0  0  0  0  0  0  0  0  0
    9.2768    5.6183   21.4437 C   0  0  0  0  0  0  0  0  0  0  0  0
    8.6315    7.7322   23.1768 C   0  0  0  0  0  0  0  0  0  0  0  0
   13.0537    9.9821   20.5781 C   0  0  0  0  0  0  0  0  0  0  0  0
   10.3850    4.6575   23.2386 O   0  0  0  0  0  0  0  0  0  0  0  0
    4.2069    6.8450   20.7994 C   0  0  0  0  0  0  0  0  0  0  0  0
    3.0726   10.1043   19.8522 O   0  0  0  0  0  0  0  0  0  0  0  0
    5.5057    7.1196   21.1155 C   0  0  0  0  0  0  0  0  0  0  0  0
    7.0367   11.0229   21.9948 O   0  0  0  0  0  0  0  0  0  0  0  0
  1  8  4  0
  1 12  4  0
  2  9  1  0
  2 11  4  0
  2 25  4  0
  3 12  4  0
  3 14  1  0
  3 23  4  0
  4 13  4  0
  4 21  4  0
  4 24  1  0
  5  8  4  0
  5 23  4  0
  6 18  2  0
  7 15  4  0
  7 16  1  0
  7 27  4  0
  8 18  1  0
 10 18  1  0
 10 20  1  0
 11 15  4  0
 11 26  1  0
 13 22  4  0
 16 19  1  0
 16 20  2  0
 17 19  4  0
 17 21  4  0
 19 22  4  0
 20 28  1  0
 25 27  4  0
M  END
$$$$

 Created by Python create_sdf_string function

 28 30  0  0  0  0  0  0  0  0999 V2000
   11.4592   11.2893   18.7941 C   0  0  0  0  0  0  0  0  0  0  0  0
    3.4202    7.9009   20.3866 C   0  0  0  0  0  0  0  0  0  0  0  0
   13.5280   10.3522   19.3586 C   0  0  0  0  0  0  0  0  0  0  0  0
    9.6923    5.6468   22.7891 C   0  0  0  0  0  0  0  0  0  0  0  0
   11.7756   10.2554   20.8841 N   0  0  0  0  0  0  0  0  0  0  0  0
    8.9876   11.9370   19.8757 O   0  0  0  0  0  0  0  0  0  0  0  0
    6.0167    8.4478   21.1089 C   0  0  0  0  0  0  0  0  0  0  0  0
   11.0002   10.8890   20.0262 C   0  0  0  0  0  0  0  0  0  0  0  0
    2.1721    7.7393   20.0315 O   0  0  0  0  0  0  0  0  0  0  0  0
    9.1107   10.3880   21.3769 N   0  0  0  0  0  0  0  0  0  0  0  0
    3.9102    9.2008   20.3124 C   0  0  0  0  0  0  0  0  0  0  0  0
   12.7292   10.9960   18.4597 C   0  0  0  0  0  0  0  0  0  0  0  0
    9.3798    6.6793   23.6625 C   0  0  0  0  0  0  0  0  0  0  0  0
   14.7425   10.0739   19.0802 O   0  0  0  0  0  0  0  0  0  0  0  0
    5.1894    9.4673   20.7118 C   0  0  0  0  0  0  0  0  0  0  0  0
    7.3773    8.8224   21.4870 C   0  0  0  0  0  0  0  0  0  0  0  0
    8.4391    6.6439   21.0235 C   0  0  0  0  0  0  0  0  0  0  0  0
    9.6494   11.1353   20.4167 C   0  0  0  0  0  0  0  0  0  0  0  0
    8.1431    7.6829   21.9046 C   0  0  0  0  0  0  0  0  0  0  0  0
    7.7796   10.1314   21.5115 N   0  0  0  0  0  0  0  0  0  0  0  0
    9.2768    5.6183   21.4437 C   0  0  0  0  0  0  0  0  0  0  0  0
    8.6315    7.7322   23.1768 C   0  0  0  0  0  0  0  0  0  0  0  0
   13.0537    9.9821   20.5781 C   0  0  0  0  0  0  0  0  0  0  0  0
   10.3850    4.6575   23.2386 O   0  0  0  0  0  0  0  0  0  0  0  0
    4.2069    6.8450   20.7994 C   0  0  0  0  0  0  0  0  0  0  0  0
    3.0726   10.1043   19.8522 O   0  0  0  0  0  0  0  0  0  0  0  0
    5.5057    7.1196   21.1155 C   0  0  0  0  0  0  0  0  0  0  0  0
    7.0367   11.0229   21.9948 O   0  0  0  0  0  0  0  0  0  0  0  0
  1  8  4  0
  1 12  4  0
  2  9  1  0
  2 11  4  0
  2 25  4  0
  3 12  4  0
  3 14  1  0
  3 23  4  0
  4 13  4  0
  4 21  4  0
  4 24  1  0
  5  8  4  0
  5 23  4  0
  6 18  2  0
  7 15  4  0
  7 16  1  0
  7 27  4  0
  8 18  1  0
 10 18  1  0
 10 20  1  0
 11 15  4  0
 11 26  1  0
 13 22  4  0
 16 19  1  0
 16 20  2  0
 17 19  4  0
 17 21  4  0
 19 22  4  0
 20 28  1  0
 25 27  4  0
M  END
$$$$

 Created by Python create_sdf_string function

 28 30  0  0  0  0  0  0  0  0999 V2000
   11.4592   11.2893   18.7941 C   0  0  0  0  0  0  0  0  0  0  0  0
    3.4202    7.9009   20.3866 C   0  0  0  0  0  0  0  0  0  0  0  0
   13.5280   10.3522   19.3586 C   0  0  0  0  0  0  0  0  0  0  0  0
    9.6923    5.6468   22.7891 C   0  0  0  0  0  0  0  0  0  0  0  0
   11.7756   10.2554   20.8841 N   0  0  0  0  0  0  0  0  0  0  0  0
    8.9876   11.9370   19.8757 O   0  0  0  0  0  0  0  0  0  0  0  0
    6.0167    8.4478   21.1089 C   0  0  0  0  0  0  0  0  0  0  0  0
   11.0002   10.8890   20.0262 C   0  0  0  0  0  0  0  0  0  0  0  0
    2.1721    7.7393   20.0315 O   0  0  0  0  0  0  0  0  0  0  0  0
    9.1107   10.3880   21.3769 N   0  0  0  0  0  0  0  0  0  0  0  0
    3.9102    9.2008   20.3124 C   0  0  0  0  0  0  0  0  0  0  0  0
   12.7292   10.9960   18.4597 C   0  0  0  0  0  0  0  0  0  0  0  0
    9.3798    6.6793   23.6625 C   0  0  0  0  0  0  0  0  0  0  0  0
   14.7425   10.0739   19.0802 O   0  0  0  0  0  0  0  0  0  0  0  0
    5.1894    9.4673   20.7118 C   0  0  0  0  0  0  0  0  0  0  0  0
    7.3773    8.8224   21.4870 C   0  0  0  0  0  0  0  0  0  0  0  0
    8.4391    6.6439   21.0235 C   0  0  0  0  0  0  0  0  0  0  0  0
    9.6494   11.1353   20.4167 C   0  0  0  0  0  0  0  0  0  0  0  0
    8.1431    7.6829   21.9046 C   0  0  0  0  0  0  0  0  0  0  0  0
    7.7796   10.1314   21.5115 N   0  0  0  0  0  0  0  0  0  0  0  0
    9.2768    5.6183   21.4437 C   0  0  0  0  0  0  0  0  0  0  0  0
    8.6315    7.7322   23.1768 C   0  0  0  0  0  0  0  0  0  0  0  0
   13.0537    9.9821   20.5781 C   0  0  0  0  0  0  0  0  0  0  0  0
   10.3850    4.6575   23.2386 O   0  0  0  0  0  0  0  0  0  0  0  0
    4.2069    6.8450   20.7994 C   0  0  0  0  0  0  0  0  0  0  0  0
    3.0726   10.1043   19.8522 O   0  0  0  0  0  0  0  0  0  0  0  0
    5.5057    7.1196   21.1155 C   0  0  0  0  0  0  0  0  0  0  0  0
    7.0367   11.0229   21.9948 O   0  0  0  0  0  0  0  0  0  0  0  0
  1  8  4  0
  1 12  4  0
  2  9  1  0
  2 11  4  0
  2 25  4  0
  3 12  4  0
  3 14  1  0
  3 23  4  0
  4 13  4  0
  4 21  4  0
  4 24  1  0
  5  8  4  0
  5 23  4  0
  6 18  2  0
  7 15  4  0
  7 16  1  0
  7 27  4  0
  8 18  1  0
 10 18  1  0
 10 20  1  0
 11 15  4  0
 11 26  1  0
 13 22  4  0
 16 19  1  0
 16 20  2  0
 17 19  4  0
 17 21  4  0
 19 22  4  0
 20 28  1  0
 25 27  4  0
M  END
$$$$

 Created by Python create_sdf_string function

 28 30  0  0  0  0  0  0  0  0999 V2000
   11.4592   11.2893   18.7941 C   0  0  0  0  0  0  0  0  0  0  0  0
    3.4202    7.9009   20.3866 C   0  0  0  0  0  0  0  0  0  0  0  0
   13.5280   10.3522   19.3586 C   0  0  0  0  0  0  0  0  0  0  0  0
    9.6923    5.6468   22.7891 C   0  0  0  0  0  0  0  0  0  0  0  0
   11.7756   10.2554   20.8841 N   0  0  0  0  0  0  0  0  0  0  0  0
    8.9876   11.9370   19.8757 O   0  0  0  0  0  0  0  0  0  0  0  0
    6.0167    8.4478   21.1089 C   0  0  0  0  0  0  0  0  0  0  0  0
   11.0002   10.8890   20.0262 C   0  0  0  0  0  0  0  0  0  0  0  0
    2.1721    7.7393   20.0315 O   0  0  0  0  0  0  0  0  0  0  0  0
    9.1107   10.3880   21.3769 N   0  0  0  0  0  0  0  0  0  0  0  0
    3.9102    9.2008   20.3124 C   0  0  0  0  0  0  0  0  0  0  0  0
   12.7292   10.9960   18.4597 C   0  0  0  0  0  0  0  0  0  0  0  0
    9.3798    6.6793   23.6625 C   0  0  0  0  0  0  0  0  0  0  0  0
   14.7425   10.0739   19.0802 O   0  0  0  0  0  0  0  0  0  0  0  0
    5.1894    9.4673   20.7118 C   0  0  0  0  0  0  0  0  0  0  0  0
    7.3773    8.8224   21.4870 C   0  0  0  0  0  0  0  0  0  0  0  0
    8.4391    6.6439   21.0235 C   0  0  0  0  0  0  0  0  0  0  0  0
    9.6494   11.1353   20.4167 C   0  0  0  0  0  0  0  0  0  0  0  0
    8.1431    7.6829   21.9046 C   0  0  0  0  0  0  0  0  0  0  0  0
    7.7796   10.1314   21.5115 N   0  0  0  0  0  0  0  0  0  0  0  0
    9.2768    5.6183   21.4437 C   0  0  0  0  0  0  0  0  0  0  0  0
    8.6315    7.7322   23.1768 C   0  0  0  0  0  0  0  0  0  0  0  0
   13.0537    9.9821   20.5781 C   0  0  0  0  0  0  0  0  0  0  0  0
   10.3850    4.6575   23.2386 O   0  0  0  0  0  0  0  0  0  0  0  0
    4.2069    6.8450   20.7994 C   0  0  0  0  0  0  0  0  0  0  0  0
    3.0726   10.1043   19.8522 O   0  0  0  0  0  0  0  0  0  0  0  0
    5.5057    7.1196   21.1155 C   0  0  0  0  0  0  0  0  0  0  0  0
    7.0367   11.0229   21.9948 O   0  0  0  0  0  0  0  0  0  0  0  0
  1  8  4  0
  1 12  4  0
  2  9  1  0
  2 11  4  0
  2 25  4  0
  3 12  4  0
  3 14  1  0
  3 23  4  0
  4 13  4  0
  4 21  4  0
  4 24  1  0
  5  8  4  0
  5 23  4  0
  6 18  2  0
  7 15  4  0
  7 16  1  0
  7 27  4  0
  8 18  1  0
 10 18  1  0
 10 20  1  0
 11 15  4  0
 11 26  1  0
 13 22  4  0
 16 19  1  0
 16 20  2  0
 17 19  4  0
 17 21  4  0
 19 22  4  0
 20 28  1  0
 25 27  4  0
M  END
$$$$

 Created by Python create_sdf_string function

 28 30  0  0  0  0  0  0  0  0999 V2000
   11.4592   11.2893   18.7941 C   0  0  0  0  0  0  0  0  0  0  0  0
    3.4202    7.9009   20.3866 C   0  0  0  0  0  0  0  0  0  0  0  0
   13.5280   10.3522   19.3586 C   0  0  0  0  0  0  0  0  0  0  0  0
    9.6923    5.6468   22.7891 C   0  0  0  0  0  0  0  0  0  0  0  0
   11.7756   10.2554   20.8841 N   0  0  0  0  0  0  0  0  0  0  0  0
    8.9876   11.9370   19.8757 O   0  0  0  0  0  0  0  0  0  0  0  0
    6.0167    8.4478   21.1089 C   0  0  0  0  0  0  0  0  0  0  0  0
   11.0002   10.8890   20.0262 C   0  0  0  0  0  0  0  0  0  0  0  0
    2.1721    7.7393   20.0315 O   0  0  0  0  0  0  0  0  0  0  0  0
    9.1107   10.3880   21.3769 N   0  0  0  0  0  0  0  0  0  0  0  0
    3.9102    9.2008   20.3124 C   0  0  0  0  0  0  0  0  0  0  0  0
   12.7292   10.9960   18.4597 C   0  0  0  0  0  0  0  0  0  0  0  0
    9.3798    6.6793   23.6625 C   0  0  0  0  0  0  0  0  0  0  0  0
   14.7425   10.0739   19.0802 O   0  0  0  0  0  0  0  0  0  0  0  0
    5.1894    9.4673   20.7118 C   0  0  0  0  0  0  0  0  0  0  0  0
    7.3773    8.8224   21.4870 C   0  0  0  0  0  0  0  0  0  0  0  0
    8.4391    6.6439   21.0235 C   0  0  0  0  0  0  0  0  0  0  0  0
    9.6494   11.1353   20.4167 C   0  0  0  0  0  0  0  0  0  0  0  0
    8.1431    7.6829   21.9046 C   0  0  0  0  0  0  0  0  0  0  0  0
    7.7796   10.1314   21.5115 N   0  0  0  0  0  0  0  0  0  0  0  0
    9.2768    5.6183   21.4437 C   0  0  0  0  0  0  0  0  0  0  0  0
    8.6315    7.7322   23.1768 C   0  0  0  0  0  0  0  0  0  0  0  0
   13.0537    9.9821   20.5781 C   0  0  0  0  0  0  0  0  0  0  0  0
   10.3850    4.6575   23.2386 O   0  0  0  0  0  0  0  0  0  0  0  0
    4.2069    6.8450   20.7994 C   0  0  0  0  0  0  0  0  0  0  0  0
    3.0726   10.1043   19.8522 O   0  0  0  0  0  0  0  0  0  0  0  0
    5.5057    7.1196   21.1155 C   0  0  0  0  0  0  0  0  0  0  0  0
    7.0367   11.0229   21.9948 O   0  0  0  0  0  0  0  0  0  0  0  0
  1  8  4  0
  1 12  4  0
  2  9  1  0
  2 11  4  0
  2 25  4  0
  3 12  4  0
  3 14  1  0
  3 23  4  0
  4 13  4  0
  4 21  4  0
  4 24  1  0
  5  8  4  0
  5 23  4  0
  6 18  2  0
  7 15  4  0
  7 16  1  0
  7 27  4  0
  8 18  1  0
 10 18  1  0
 10 20  1  0
 11 15  4  0
 11 26  1  0
 13 22  4  0
 16 19  1  0
 16 20  2  0
 17 19  4  0
 17 21  4  0
 19 22  4  0
 20 28  1  0
 25 27  4  0
M  END
$$$$

 Created by Python create_sdf_string function

 28 30  0  0  0  0  0  0  0  0999 V2000
   11.4592   11.2893   18.7941 C   0  0  0  0  0  0  0  0  0  0  0  0
    3.4202    7.9009   20.3866 C   0  0  0  0  0  0  0  0  0  0  0  0
   13.5280   10.3522   19.3586 C   0  0  0  0  0  0  0  0  0  0  0  0
    9.6923    5.6468   22.7891 C   0  0  0  0  0  0  0  0  0  0  0  0
   11.7756   10.2554   20.8841 N   0  0  0  0  0  0  0  0  0  0  0  0
    8.9876   11.9370   19.8757 O   0  0  0  0  0  0  0  0  0  0  0  0
    6.0167    8.4478   21.1089 C   0  0  0  0  0  0  0  0  0  0  0  0
   11.0002   10.8890   20.0262 C   0  0  0  0  0  0  0  0  0  0  0  0
    2.1721    7.7393   20.0315 O   0  0  0  0  0  0  0  0  0  0  0  0
    9.1107   10.3880   21.3769 N   0  0  0  0  0  0  0  0  0  0  0  0
    3.9102    9.2008   20.3124 C   0  0  0  0  0  0  0  0  0  0  0  0
   12.7292   10.9960   18.4597 C   0  0  0  0  0  0  0  0  0  0  0  0
    9.3798    6.6793   23.6625 C   0  0  0  0  0  0  0  0  0  0  0  0
   14.7425   10.0739   19.0802 O   0  0  0  0  0  0  0  0  0  0  0  0
    5.1894    9.4673   20.7118 C   0  0  0  0  0  0  0  0  0  0  0  0
    7.3773    8.8224   21.4870 C   0  0  0  0  0  0  0  0  0  0  0  0
    8.4391    6.6439   21.0235 C   0  0  0  0  0  0  0  0  0  0  0  0
    9.6494   11.1353   20.4167 C   0  0  0  0  0  0  0  0  0  0  0  0
    8.1431    7.6829   21.9046 C   0  0  0  0  0  0  0  0  0  0  0  0
    7.7796   10.1314   21.5115 N   0  0  0  0  0  0  0  0  0  0  0  0
    9.2768    5.6183   21.4437 C   0  0  0  0  0  0  0  0  0  0  0  0
    8.6315    7.7322   23.1768 C   0  0  0  0  0  0  0  0  0  0  0  0
   13.0537    9.9821   20.5781 C   0  0  0  0  0  0  0  0  0  0  0  0
   10.3850    4.6575   23.2386 O   0  0  0  0  0  0  0  0  0  0  0  0
    4.2069    6.8450   20.7994 C   0  0  0  0  0  0  0  0  0  0  0  0
    3.0726   10.1043   19.8522 O   0  0  0  0  0  0  0  0  0  0  0  0
    5.5057    7.1196   21.1155 C   0  0  0  0  0  0  0  0  0  0  0  0
    7.0367   11.0229   21.9948 O   0  0  0  0  0  0  0  0  0  0  0  0
  1  8  4  0
  1 12  4  0
  2  9  1  0
  2 11  4  0
  2 25  4  0
  3 12  4  0
  3 14  1  0
  3 23  4  0
  4 13  4  0
  4 21  4  0
  4 24  1  0
  5  8  4  0
  5 23  4  0
  6 18  2  0
  7 15  4  0
  7 16  1  0
  7 27  4  0
  8 18  1  0
 10 18  1  0
 10 20  1  0
 11 15  4  0
 11 26  1  0
 13 22  4  0
 16 19  1  0
 16 20  2  0
 17 19  4  0
 17 21  4  0
 19 22  4  0
 20 28  1  0
 25 27  4  0
M  END
$$$$

 Created by Python create_sdf_string function

 28 30  0  0  0  0  0  0  0  0999 V2000
   11.4592   11.2893   18.7941 C   0  0  0  0  0  0  0  0  0  0  0  0
    3.4202    7.9009   20.3866 C   0  0  0  0  0  0  0  0  0  0  0  0
   13.5280   10.3522   19.3586 C   0  0  0  0  0  0  0  0  0  0  0  0
    9.6923    5.6468   22.7891 C   0  0  0  0  0  0  0  0  0  0  0  0
   11.7756   10.2554   20.8841 N   0  0  0  0  0  0  0  0  0  0  0  0
    8.9876   11.9370   19.8757 O   0  0  0  0  0  0  0  0  0  0  0  0
    6.0167    8.4478   21.1089 C   0  0  0  0  0  0  0  0  0  0  0  0
   11.0002   10.8890   20.0262 C   0  0  0  0  0  0  0  0  0  0  0  0
    2.1721    7.7393   20.0315 O   0  0  0  0  0  0  0  0  0  0  0  0
    9.1107   10.3880   21.3769 N   0  0  0  0  0  0  0  0  0  0  0  0
    3.9102    9.2008   20.3124 C   0  0  0  0  0  0  0  0  0  0  0  0
   12.7292   10.9960   18.4597 C   0  0  0  0  0  0  0  0  0  0  0  0
    9.3798    6.6793   23.6625 C   0  0  0  0  0  0  0  0  0  0  0  0
   14.7425   10.0739   19.0802 O   0  0  0  0  0  0  0  0  0  0  0  0
    5.1894    9.4673   20.7118 C   0  0  0  0  0  0  0  0  0  0  0  0
    7.3773    8.8224   21.4870 C   0  0  0  0  0  0  0  0  0  0  0  0
    8.4391    6.6439   21.0235 C   0  0  0  0  0  0  0  0  0  0  0  0
    9.6494   11.1353   20.4167 C   0  0  0  0  0  0  0  0  0  0  0  0
    8.1431    7.6829   21.9046 C   0  0  0  0  0  0  0  0  0  0  0  0
    7.7796   10.1314   21.5115 N   0  0  0  0  0  0  0  0  0  0  0  0
    9.2768    5.6183   21.4437 C   0  0  0  0  0  0  0  0  0  0  0  0
    8.6315    7.7322   23.1768 C   0  0  0  0  0  0  0  0  0  0  0  0
   13.0537    9.9821   20.5781 C   0  0  0  0  0  0  0  0  0  0  0  0
   10.3850    4.6575   23.2386 O   0  0  0  0  0  0  0  0  0  0  0  0
    4.2069    6.8450   20.7994 C   0  0  0  0  0  0  0  0  0  0  0  0
    3.0726   10.1043   19.8522 O   0  0  0  0  0  0  0  0  0  0  0  0
    5.5057    7.1196   21.1155 C   0  0  0  0  0  0  0  0  0  0  0  0
    7.0367   11.0229   21.9948 O   0  0  0  0  0  0  0  0  0  0  0  0
  1  8  4  0
  1 12  4  0
  2  9  1  0
  2 11  4  0
  2 25  4  0
  3 12  4  0
  3 14  1  0
  3 23  4  0
  4 13  4  0
  4 21  4  0
  4 24  1  0
  5  8  4  0
  5 23  4  0
  6 18  2  0
  7 15  4  0
  7 16  1  0
  7 27  4  0
  8 18  1  0
 10 18  1  0
 10 20  1  0
 11 15  4  0
 11 26  1  0
 13 22  4  0
 16 19  1  0
 16 20  2  0
 17 19  4  0
 17 21  4  0
 19 22  4  0
 20 28  1  0
 25 27  4  0
M  END
$$$$

 Created by Python create_sdf_string function

 28 30  0  0  0  0  0  0  0  0999 V2000
   11.4592   11.2893   18.7941 C   0  0  0  0  0  0  0  0  0  0  0  0
    3.4202    7.9009   20.3866 C   0  0  0  0  0  0  0  0  0  0  0  0
   13.5280   10.3522   19.3586 C   0  0  0  0  0  0  0  0  0  0  0  0
    9.6923    5.6468   22.7891 C   0  0  0  0  0  0  0  0  0  0  0  0
   11.7756   10.2554   20.8841 N   0  0  0  0  0  0  0  0  0  0  0  0
    8.9876   11.9370   19.8757 O   0  0  0  0  0  0  0  0  0  0  0  0
    6.0167    8.4478   21.1089 C   0  0  0  0  0  0  0  0  0  0  0  0
   11.0002   10.8890   20.0262 C   0  0  0  0  0  0  0  0  0  0  0  0
    2.1721    7.7393   20.0315 O   0  0  0  0  0  0  0  0  0  0  0  0
    9.1107   10.3880   21.3769 N   0  0  0  0  0  0  0  0  0  0  0  0
    3.9102    9.2008   20.3124 C   0  0  0  0  0  0  0  0  0  0  0  0
   12.7292   10.9960   18.4597 C   0  0  0  0  0  0  0  0  0  0  0  0
    9.3798    6.6793   23.6625 C   0  0  0  0  0  0  0  0  0  0  0  0
   14.7425   10.0739   19.0802 O   0  0  0  0  0  0  0  0  0  0  0  0
    5.1894    9.4673   20.7118 C   0  0  0  0  0  0  0  0  0  0  0  0
    7.3773    8.8224   21.4870 C   0  0  0  0  0  0  0  0  0  0  0  0
    8.4391    6.6439   21.0235 C   0  0  0  0  0  0  0  0  0  0  0  0
    9.6494   11.1353   20.4167 C   0  0  0  0  0  0  0  0  0  0  0  0
    8.1431    7.6829   21.9046 C   0  0  0  0  0  0  0  0  0  0  0  0
    7.7796   10.1314   21.5115 N   0  0  0  0  0  0  0  0  0  0  0  0
    9.2768    5.6183   21.4437 C   0  0  0  0  0  0  0  0  0  0  0  0
    8.6315    7.7322   23.1768 C   0  0  0  0  0  0  0  0  0  0  0  0
   13.0537    9.9821   20.5781 C   0  0  0  0  0  0  0  0  0  0  0  0
   10.3850    4.6575   23.2386 O   0  0  0  0  0  0  0  0  0  0  0  0
    4.2069    6.8450   20.7994 C   0  0  0  0  0  0  0  0  0  0  0  0
    3.0726   10.1043   19.8522 O   0  0  0  0  0  0  0  0  0  0  0  0
    5.5057    7.1196   21.1155 C   0  0  0  0  0  0  0  0  0  0  0  0
    7.0367   11.0229   21.9948 O   0  0  0  0  0  0  0  0  0  0  0  0
  1  8  4  0
  1 12  4  0
  2  9  1  0
  2 11  4  0
  2 25  4  0
  3 12  4  0
  3 14  1  0
  3 23  4  0
  4 13  4  0
  4 21  4  0
  4 24  1  0
  5  8  4  0
  5 23  4  0
  6 18  2  0
  7 15  4  0
  7 16  1  0
  7 27  4  0
  8 18  1  0
 10 18  1  0
 10 20  1  0
 11 15  4  0
 11 26  1  0
 13 22  4  0
 16 19  1  0
 16 20  2  0
 17 19  4  0
 17 21  4  0
 19 22  4  0
 20 28  1  0
 25 27  4  0
M  END
$$$$

 Created by Python create_sdf_string function

 28 30  0  0  0  0  0  0  0  0999 V2000
   11.4592   11.2893   18.7941 C   0  0  0  0  0  0  0  0  0  0  0  0
    3.4202    7.9009   20.3866 C   0  0  0  0  0  0  0  0  0  0  0  0
   13.5280   10.3522   19.3586 C   0  0  0  0  0  0  0  0  0  0  0  0
    9.6923    5.6468   22.7891 C   0  0  0  0  0  0  0  0  0  0  0  0
   11.7756   10.2554   20.8841 N   0  0  0  0  0  0  0  0  0  0  0  0
    8.9876   11.9370   19.8757 O   0  0  0  0  0  0  0  0  0  0  0  0
    6.0167    8.4478   21.1089 C   0  0  0  0  0  0  0  0  0  0  0  0
   11.0002   10.8890   20.0262 C   0  0  0  0  0  0  0  0  0  0  0  0
    2.1721    7.7393   20.0315 O   0  0  0  0  0  0  0  0  0  0  0  0
    9.1107   10.3880   21.3769 N   0  0  0  0  0  0  0  0  0  0  0  0
    3.9102    9.2008   20.3124 C   0  0  0  0  0  0  0  0  0  0  0  0
   12.7292   10.9960   18.4597 C   0  0  0  0  0  0  0  0  0  0  0  0
    9.3798    6.6793   23.6625 C   0  0  0  0  0  0  0  0  0  0  0  0
   14.7425   10.0739   19.0802 O   0  0  0  0  0  0  0  0  0  0  0  0
    5.1894    9.4673   20.7118 C   0  0  0  0  0  0  0  0  0  0  0  0
    7.3773    8.8224   21.4870 C   0  0  0  0  0  0  0  0  0  0  0  0
    8.4391    6.6439   21.0235 C   0  0  0  0  0  0  0  0  0  0  0  0
    9.6494   11.1353   20.4167 C   0  0  0  0  0  0  0  0  0  0  0  0
    8.1431    7.6829   21.9046 C   0  0  0  0  0  0  0  0  0  0  0  0
    7.7796   10.1314   21.5115 N   0  0  0  0  0  0  0  0  0  0  0  0
    9.2768    5.6183   21.4437 C   0  0  0  0  0  0  0  0  0  0  0  0
    8.6315    7.7322   23.1768 C   0  0  0  0  0  0  0  0  0  0  0  0
   13.0537    9.9821   20.5781 C   0  0  0  0  0  0  0  0  0  0  0  0
   10.3850    4.6575   23.2386 O   0  0  0  0  0  0  0  0  0  0  0  0
    4.2069    6.8450   20.7994 C   0  0  0  0  0  0  0  0  0  0  0  0
    3.0726   10.1043   19.8522 O   0  0  0  0  0  0  0  0  0  0  0  0
    5.5057    7.1196   21.1155 C   0  0  0  0  0  0  0  0  0  0  0  0
    7.0367   11.0229   21.9948 O   0  0  0  0  0  0  0  0  0  0  0  0
  1  8  4  0
  1 12  4  0
  2  9  1  0
  2 11  4  0
  2 25  4  0
  3 12  4  0
  3 14  1  0
  3 23  4  0
  4 13  4  0
  4 21  4  0
  4 24  1  0
  5  8  4  0
  5 23  4  0
  6 18  2  0
  7 15  4  0
  7 16  1  0
  7 27  4  0
  8 18  1  0
 10 18  1  0
 10 20  1  0
 11 15  4  0
 11 26  1  0
 13 22  4  0
 16 19  1  0
 16 20  2  0
 17 19  4  0
 17 21  4  0
 19 22  4  0
 20 28  1  0
 25 27  4  0
M  END
$$$$

 Created by Python create_sdf_string function

 28 30  0  0  0  0  0  0  0  0999 V2000
   11.4592   11.2893   18.7941 C   0  0  0  0  0  0  0  0  0  0  0  0
    3.4202    7.9009   20.3866 C   0  0  0  0  0  0  0  0  0  0  0  0
   13.5280   10.3522   19.3586 C   0  0  0  0  0  0  0  0  0  0  0  0
    9.6923    5.6468   22.7891 C   0  0  0  0  0  0  0  0  0  0  0  0
   11.7756   10.2554   20.8841 N   0  0  0  0  0  0  0  0  0  0  0  0
    8.9876   11.9370   19.8757 O   0  0  0  0  0  0  0  0  0  0  0  0
    6.0167    8.4478   21.1089 C   0  0  0  0  0  0  0  0  0  0  0  0
   11.0002   10.8890   20.0262 C   0  0  0  0  0  0  0  0  0  0  0  0
    2.1721    7.7393   20.0315 O   0  0  0  0  0  0  0  0  0  0  0  0
    9.1107   10.3880   21.3769 N   0  0  0  0  0  0  0  0  0  0  0  0
    3.9102    9.2008   20.3124 C   0  0  0  0  0  0  0  0  0  0  0  0
   12.7292   10.9960   18.4597 C   0  0  0  0  0  0  0  0  0  0  0  0
    9.3798    6.6793   23.6625 C   0  0  0  0  0  0  0  0  0  0  0  0
   14.7425   10.0739   19.0802 O   0  0  0  0  0  0  0  0  0  0  0  0
    5.1894    9.4673   20.7118 C   0  0  0  0  0  0  0  0  0  0  0  0
    7.3773    8.8224   21.4870 C   0  0  0  0  0  0  0  0  0  0  0  0
    8.4391    6.6439   21.0235 C   0  0  0  0  0  0  0  0  0  0  0  0
    9.6494   11.1353   20.4167 C   0  0  0  0  0  0  0  0  0  0  0  0
    8.1431    7.6829   21.9046 C   0  0  0  0  0  0  0  0  0  0  0  0
    7.7796   10.1314   21.5115 N   0  0  0  0  0  0  0  0  0  0  0  0
    9.2768    5.6183   21.4437 C   0  0  0  0  0  0  0  0  0  0  0  0
    8.6315    7.7322   23.1768 C   0  0  0  0  0  0  0  0  0  0  0  0
   13.0537    9.9821   20.5781 C   0  0  0  0  0  0  0  0  0  0  0  0
   10.3850    4.6575   23.2386 O   0  0  0  0  0  0  0  0  0  0  0  0
    4.2069    6.8450   20.7994 C   0  0  0  0  0  0  0  0  0  0  0  0
    3.0726   10.1043   19.8522 O   0  0  0  0  0  0  0  0  0  0  0  0
    5.5057    7.1196   21.1155 C   0  0  0  0  0  0  0  0  0  0  0  0
    7.0367   11.0229   21.9948 O   0  0  0  0  0  0  0  0  0  0  0  0
  1  8  4  0
  1 12  4  0
  2  9  1  0
  2 11  4  0
  2 25  4  0
  3 12  4  0
  3 14  1  0
  3 23  4  0
  4 13  4  0
  4 21  4  0
  4 24  1  0
  5  8  4  0
  5 23  4  0
  6 18  2  0
  7 15  4  0
  7 16  1  0
  7 27  4  0
  8 18  1  0
 10 18  1  0
 10 20  1  0
 11 15  4  0
 11 26  1  0
 13 22  4  0
 16 19  1  0
 16 20  2  0
 17 19  4  0
 17 21  4  0
 19 22  4  0
 20 28  1  0
 25 27  4  0
M  END
$$$$

 Created by Python create_sdf_string function

 28 30  0  0  0  0  0  0  0  0999 V2000
   11.4592   11.2893   18.7941 C   0  0  0  0  0  0  0  0  0  0  0  0
    3.4202    7.9009   20.3866 C   0  0  0  0  0  0  0  0  0  0  0  0
   13.5280   10.3522   19.3586 C   0  0  0  0  0  0  0  0  0  0  0  0
    9.6923    5.6468   22.7891 C   0  0  0  0  0  0  0  0  0  0  0  0
   11.7756   10.2554   20.8841 N   0  0  0  0  0  0  0  0  0  0  0  0
    8.9876   11.9370   19.8757 O   0  0  0  0  0  0  0  0  0  0  0  0
    6.0167    8.4478   21.1089 C   0  0  0  0  0  0  0  0  0  0  0  0
   11.0002   10.8890   20.0262 C   0  0  0  0  0  0  0  0  0  0  0  0
    2.1721    7.7393   20.0315 O   0  0  0  0  0  0  0  0  0  0  0  0
    9.1107   10.3880   21.3769 N   0  0  0  0  0  0  0  0  0  0  0  0
    3.9102    9.2008   20.3124 C   0  0  0  0  0  0  0  0  0  0  0  0
   12.7292   10.9960   18.4597 C   0  0  0  0  0  0  0  0  0  0  0  0
    9.3798    6.6793   23.6625 C   0  0  0  0  0  0  0  0  0  0  0  0
   14.7425   10.0739   19.0802 O   0  0  0  0  0  0  0  0  0  0  0  0
    5.1894    9.4673   20.7118 C   0  0  0  0  0  0  0  0  0  0  0  0
    7.3773    8.8224   21.4870 C   0  0  0  0  0  0  0  0  0  0  0  0
    8.4391    6.6439   21.0235 C   0  0  0  0  0  0  0  0  0  0  0  0
    9.6494   11.1353   20.4167 C   0  0  0  0  0  0  0  0  0  0  0  0
    8.1431    7.6829   21.9046 C   0  0  0  0  0  0  0  0  0  0  0  0
    7.7796   10.1314   21.5115 N   0  0  0  0  0  0  0  0  0  0  0  0
    9.2768    5.6183   21.4437 C   0  0  0  0  0  0  0  0  0  0  0  0
    8.6315    7.7322   23.1768 C   0  0  0  0  0  0  0  0  0  0  0  0
   13.0537    9.9821   20.5781 C   0  0  0  0  0  0  0  0  0  0  0  0
   10.3850    4.6575   23.2386 O   0  0  0  0  0  0  0  0  0  0  0  0
    4.2069    6.8450   20.7994 C   0  0  0  0  0  0  0  0  0  0  0  0
    3.0726   10.1043   19.8522 O   0  0  0  0  0  0  0  0  0  0  0  0
    5.5057    7.1196   21.1155 C   0  0  0  0  0  0  0  0  0  0  0  0
    7.0367   11.0229   21.9948 O   0  0  0  0  0  0  0  0  0  0  0  0
  1  8  4  0
  1 12  4  0
  2  9  1  0
  2 11  4  0
  2 25  4  0
  3 12  4  0
  3 14  1  0
  3 23  4  0
  4 13  4  0
  4 21  4  0
  4 24  1  0
  5  8  4  0
  5 23  4  0
  6 18  2  0
  7 15  4  0
  7 16  1  0
  7 27  4  0
  8 18  1  0
 10 18  1  0
 10 20  1  0
 11 15  4  0
 11 26  1  0
 13 22  4  0
 16 19  1  0
 16 20  2  0
 17 19  4  0
 17 21  4  0
 19 22  4  0
 20 28  1  0
 25 27  4  0
M  END
$$$$

 Created by Python create_sdf_string function

 28 30  0  0  0  0  0  0  0  0999 V2000
   11.4592   11.2893   18.7941 C   0  0  0  0  0  0  0  0  0  0  0  0
    3.4202    7.9009   20.3866 C   0  0  0  0  0  0  0  0  0  0  0  0
   13.5280   10.3522   19.3586 C   0  0  0  0  0  0  0  0  0  0  0  0
    9.6923    5.6468   22.7891 C   0  0  0  0  0  0  0  0  0  0  0  0
   11.7756   10.2554   20.8841 N   0  0  0  0  0  0  0  0  0  0  0  0
    8.9876   11.9370   19.8757 O   0  0  0  0  0  0  0  0  0  0  0  0
    6.0167    8.4478   21.1089 C   0  0  0  0  0  0  0  0  0  0  0  0
   11.0002   10.8890   20.0262 C   0  0  0  0  0  0  0  0  0  0  0  0
    2.1721    7.7393   20.0315 O   0  0  0  0  0  0  0  0  0  0  0  0
    9.1107   10.3880   21.3769 N   0  0  0  0  0  0  0  0  0  0  0  0
    3.9102    9.2008   20.3124 C   0  0  0  0  0  0  0  0  0  0  0  0
   12.7292   10.9960   18.4597 C   0  0  0  0  0  0  0  0  0  0  0  0
    9.3798    6.6793   23.6625 C   0  0  0  0  0  0  0  0  0  0  0  0
   14.7425   10.0739   19.0802 O   0  0  0  0  0  0  0  0  0  0  0  0
    5.1894    9.4673   20.7118 C   0  0  0  0  0  0  0  0  0  0  0  0
    7.3773    8.8224   21.4870 C   0  0  0  0  0  0  0  0  0  0  0  0
    8.4391    6.6439   21.0235 C   0  0  0  0  0  0  0  0  0  0  0  0
    9.6494   11.1353   20.4167 C   0  0  0  0  0  0  0  0  0  0  0  0
    8.1431    7.6829   21.9046 C   0  0  0  0  0  0  0  0  0  0  0  0
    7.7796   10.1314   21.5115 N   0  0  0  0  0  0  0  0  0  0  0  0
    9.2768    5.6183   21.4437 C   0  0  0  0  0  0  0  0  0  0  0  0
    8.6315    7.7322   23.1768 C   0  0  0  0  0  0  0  0  0  0  0  0
   13.0537    9.9821   20.5781 C   0  0  0  0  0  0  0  0  0  0  0  0
   10.3850    4.6575   23.2386 O   0  0  0  0  0  0  0  0  0  0  0  0
    4.2069    6.8450   20.7994 C   0  0  0  0  0  0  0  0  0  0  0  0
    3.0726   10.1043   19.8522 O   0  0  0  0  0  0  0  0  0  0  0  0
    5.5057    7.1196   21.1155 C   0  0  0  0  0  0  0  0  0  0  0  0
    7.0367   11.0229   21.9948 O   0  0  0  0  0  0  0  0  0  0  0  0
  1  8  4  0
  1 12  4  0
  2  9  1  0
  2 11  4  0
  2 25  4  0
  3 12  4  0
  3 14  1  0
  3 23  4  0
  4 13  4  0
  4 21  4  0
  4 24  1  0
  5  8  4  0
  5 23  4  0
  6 18  2  0
  7 15  4  0
  7 16  1  0
  7 27  4  0
  8 18  1  0
 10 18  1  0
 10 20  1  0
 11 15  4  0
 11 26  1  0
 13 22  4  0
 16 19  1  0
 16 20  2  0
 17 19  4  0
 17 21  4  0
 19 22  4  0
 20 28  1  0
 25 27  4  0
M  END
$$$$

 Created by Python create_sdf_string function

 28 30  0  0  0  0  0  0  0  0999 V2000
   11.4592   11.2893   18.7941 C   0  0  0  0  0  0  0  0  0  0  0  0
    3.4202    7.9009   20.3866 C   0  0  0  0  0  0  0  0  0  0  0  0
   13.5280   10.3522   19.3586 C   0  0  0  0  0  0  0  0  0  0  0  0
    9.6923    5.6468   22.7891 C   0  0  0  0  0  0  0  0  0  0  0  0
   11.7756   10.2554   20.8841 N   0  0  0  0  0  0  0  0  0  0  0  0
    8.9876   11.9370   19.8757 O   0  0  0  0  0  0  0  0  0  0  0  0
    6.0167    8.4478   21.1089 C   0  0  0  0  0  0  0  0  0  0  0  0
   11.0002   10.8890   20.0262 C   0  0  0  0  0  0  0  0  0  0  0  0
    2.1721    7.7393   20.0315 O   0  0  0  0  0  0  0  0  0  0  0  0
    9.1107   10.3880   21.3769 N   0  0  0  0  0  0  0  0  0  0  0  0
    3.9102    9.2008   20.3124 C   0  0  0  0  0  0  0  0  0  0  0  0
   12.7292   10.9960   18.4597 C   0  0  0  0  0  0  0  0  0  0  0  0
    9.3798    6.6793   23.6625 C   0  0  0  0  0  0  0  0  0  0  0  0
   14.7425   10.0739   19.0802 O   0  0  0  0  0  0  0  0  0  0  0  0
    5.1894    9.4673   20.7118 C   0  0  0  0  0  0  0  0  0  0  0  0
    7.3773    8.8224   21.4870 C   0  0  0  0  0  0  0  0  0  0  0  0
    8.4391    6.6439   21.0235 C   0  0  0  0  0  0  0  0  0  0  0  0
    9.6494   11.1353   20.4167 C   0  0  0  0  0  0  0  0  0  0  0  0
    8.1431    7.6829   21.9046 C   0  0  0  0  0  0  0  0  0  0  0  0
    7.7796   10.1314   21.5115 N   0  0  0  0  0  0  0  0  0  0  0  0
    9.2768    5.6183   21.4437 C   0  0  0  0  0  0  0  0  0  0  0  0
    8.6315    7.7322   23.1768 C   0  0  0  0  0  0  0  0  0  0  0  0
   13.0537    9.9821   20.5781 C   0  0  0  0  0  0  0  0  0  0  0  0
   10.3850    4.6575   23.2386 O   0  0  0  0  0  0  0  0  0  0  0  0
    4.2069    6.8450   20.7994 C   0  0  0  0  0  0  0  0  0  0  0  0
    3.0726   10.1043   19.8522 O   0  0  0  0  0  0  0  0  0  0  0  0
    5.5057    7.1196   21.1155 C   0  0  0  0  0  0  0  0  0  0  0  0
    7.0367   11.0229   21.9948 O   0  0  0  0  0  0  0  0  0  0  0  0
  1  8  4  0
  1 12  4  0
  2  9  1  0
  2 11  4  0
  2 25  4  0
  3 12  4  0
  3 14  1  0
  3 23  4  0
  4 13  4  0
  4 21  4  0
  4 24  1  0
  5  8  4  0
  5 23  4  0
  6 18  2  0
  7 15  4  0
  7 16  1  0
  7 27  4  0
  8 18  1  0
 10 18  1  0
 10 20  1  0
 11 15  4  0
 11 26  1  0
 13 22  4  0
 16 19  1  0
 16 20  2  0
 17 19  4  0
 17 21  4  0
 19 22  4  0
 20 28  1  0
 25 27  4  0
M  END
$$$$

 Created by Python create_sdf_string function

 28 30  0  0  0  0  0  0  0  0999 V2000
   11.4592   11.2893   18.7941 C   0  0  0  0  0  0  0  0  0  0  0  0
    3.4202    7.9009   20.3866 C   0  0  0  0  0  0  0  0  0  0  0  0
   13.5280   10.3522   19.3586 C   0  0  0  0  0  0  0  0  0  0  0  0
    9.6923    5.6468   22.7891 C   0  0  0  0  0  0  0  0  0  0  0  0
   11.7756   10.2554   20.8841 N   0  0  0  0  0  0  0  0  0  0  0  0
    8.9876   11.9370   19.8757 O   0  0  0  0  0  0  0  0  0  0  0  0
    6.0167    8.4478   21.1089 C   0  0  0  0  0  0  0  0  0  0  0  0
   11.0002   10.8890   20.0262 C   0  0  0  0  0  0  0  0  0  0  0  0
    2.1721    7.7393   20.0315 O   0  0  0  0  0  0  0  0  0  0  0  0
    9.1107   10.3880   21.3769 N   0  0  0  0  0  0  0  0  0  0  0  0
    3.9102    9.2008   20.3124 C   0  0  0  0  0  0  0  0  0  0  0  0
   12.7292   10.9960   18.4597 C   0  0  0  0  0  0  0  0  0  0  0  0
    9.3798    6.6793   23.6625 C   0  0  0  0  0  0  0  0  0  0  0  0
   14.7425   10.0739   19.0802 O   0  0  0  0  0  0  0  0  0  0  0  0
    5.1894    9.4673   20.7118 C   0  0  0  0  0  0  0  0  0  0  0  0
    7.3773    8.8224   21.4870 C   0  0  0  0  0  0  0  0  0  0  0  0
    8.4391    6.6439   21.0235 C   0  0  0  0  0  0  0  0  0  0  0  0
    9.6494   11.1353   20.4167 C   0  0  0  0  0  0  0  0  0  0  0  0
    8.1431    7.6829   21.9046 C   0  0  0  0  0  0  0  0  0  0  0  0
    7.7796   10.1314   21.5115 N   0  0  0  0  0  0  0  0  0  0  0  0
    9.2768    5.6183   21.4437 C   0  0  0  0  0  0  0  0  0  0  0  0
    8.6315    7.7322   23.1768 C   0  0  0  0  0  0  0  0  0  0  0  0
   13.0537    9.9821   20.5781 C   0  0  0  0  0  0  0  0  0  0  0  0
   10.3850    4.6575   23.2386 O   0  0  0  0  0  0  0  0  0  0  0  0
    4.2069    6.8450   20.7994 C   0  0  0  0  0  0  0  0  0  0  0  0
    3.0726   10.1043   19.8522 O   0  0  0  0  0  0  0  0  0  0  0  0
    5.5057    7.1196   21.1155 C   0  0  0  0  0  0  0  0  0  0  0  0
    7.0367   11.0229   21.9948 O   0  0  0  0  0  0  0  0  0  0  0  0
  1  8  4  0
  1 12  4  0
  2  9  1  0
  2 11  4  0
  2 25  4  0
  3 12  4  0
  3 14  1  0
  3 23  4  0
  4 13  4  0
  4 21  4  0
  4 24  1  0
  5  8  4  0
  5 23  4  0
  6 18  2  0
  7 15  4  0
  7 16  1  0
  7 27  4  0
  8 18  1  0
 10 18  1  0
 10 20  1  0
 11 15  4  0
 11 26  1  0
 13 22  4  0
 16 19  1  0
 16 20  2  0
 17 19  4  0
 17 21  4  0
 19 22  4  0
 20 28  1  0
 25 27  4  0
M  END
$$$$

 Created by Python create_sdf_string function

 28 30  0  0  0  0  0  0  0  0999 V2000
   11.4592   11.2893   18.7941 C   0  0  0  0  0  0  0  0  0  0  0  0
    3.4202    7.9009   20.3866 C   0  0  0  0  0  0  0  0  0  0  0  0
   13.5280   10.3522   19.3586 C   0  0  0  0  0  0  0  0  0  0  0  0
    9.6923    5.6468   22.7891 C   0  0  0  0  0  0  0  0  0  0  0  0
   11.7756   10.2554   20.8841 N   0  0  0  0  0  0  0  0  0  0  0  0
    8.9876   11.9370   19.8757 O   0  0  0  0  0  0  0  0  0  0  0  0
    6.0167    8.4478   21.1089 C   0  0  0  0  0  0  0  0  0  0  0  0
   11.0002   10.8890   20.0262 C   0  0  0  0  0  0  0  0  0  0  0  0
    2.1721    7.7393   20.0315 O   0  0  0  0  0  0  0  0  0  0  0  0
    9.1107   10.3880   21.3769 N   0  0  0  0  0  0  0  0  0  0  0  0
    3.9102    9.2008   20.3124 C   0  0  0  0  0  0  0  0  0  0  0  0
   12.7292   10.9960   18.4597 C   0  0  0  0  0  0  0  0  0  0  0  0
    9.3798    6.6793   23.6625 C   0  0  0  0  0  0  0  0  0  0  0  0
   14.7425   10.0739   19.0802 O   0  0  0  0  0  0  0  0  0  0  0  0
    5.1894    9.4673   20.7118 C   0  0  0  0  0  0  0  0  0  0  0  0
    7.3773    8.8224   21.4870 C   0  0  0  0  0  0  0  0  0  0  0  0
    8.4391    6.6439   21.0235 C   0  0  0  0  0  0  0  0  0  0  0  0
    9.6494   11.1353   20.4167 C   0  0  0  0  0  0  0  0  0  0  0  0
    8.1431    7.6829   21.9046 C   0  0  0  0  0  0  0  0  0  0  0  0
    7.7796   10.1314   21.5115 N   0  0  0  0  0  0  0  0  0  0  0  0
    9.2768    5.6183   21.4437 C   0  0  0  0  0  0  0  0  0  0  0  0
    8.6315    7.7322   23.1768 C   0  0  0  0  0  0  0  0  0  0  0  0
   13.0537    9.9821   20.5781 C   0  0  0  0  0  0  0  0  0  0  0  0
   10.3850    4.6575   23.2386 O   0  0  0  0  0  0  0  0  0  0  0  0
    4.2069    6.8450   20.7994 C   0  0  0  0  0  0  0  0  0  0  0  0
    3.0726   10.1043   19.8522 O   0  0  0  0  0  0  0  0  0  0  0  0
    5.5057    7.1196   21.1155 C   0  0  0  0  0  0  0  0  0  0  0  0
    7.0367   11.0229   21.9948 O   0  0  0  0  0  0  0  0  0  0  0  0
  1  8  4  0
  1 12  4  0
  2  9  1  0
  2 11  4  0
  2 25  4  0
  3 12  4  0
  3 14  1  0
  3 23  4  0
  4 13  4  0
  4 21  4  0
  4 24  1  0
  5  8  4  0
  5 23  4  0
  6 18  2  0
  7 15  4  0
  7 16  1  0
  7 27  4  0
  8 18  1  0
 10 18  1  0
 10 20  1  0
 11 15  4  0
 11 26  1  0
 13 22  4  0
 16 19  1  0
 16 20  2  0
 17 19  4  0
 17 21  4  0
 19 22  4  0
 20 28  1  0
 25 27  4  0
M  END
$$$$

 Created by Python create_sdf_string function

 28 30  0  0  0  0  0  0  0  0999 V2000
   11.4592   11.2893   18.7941 C   0  0  0  0  0  0  0  0  0  0  0  0
    3.4202    7.9009   20.3866 C   0  0  0  0  0  0  0  0  0  0  0  0
   13.5280   10.3522   19.3586 C   0  0  0  0  0  0  0  0  0  0  0  0
    9.6923    5.6468   22.7891 C   0  0  0  0  0  0  0  0  0  0  0  0
   11.7756   10.2554   20.8841 N   0  0  0  0  0  0  0  0  0  0  0  0
    8.9876   11.9370   19.8757 O   0  0  0  0  0  0  0  0  0  0  0  0
    6.0167    8.4478   21.1089 C   0  0  0  0  0  0  0  0  0  0  0  0
   11.0002   10.8890   20.0262 C   0  0  0  0  0  0  0  0  0  0  0  0
    2.1721    7.7393   20.0315 O   0  0  0  0  0  0  0  0  0  0  0  0
    9.1107   10.3880   21.3769 N   0  0  0  0  0  0  0  0  0  0  0  0
    3.9102    9.2008   20.3124 C   0  0  0  0  0  0  0  0  0  0  0  0
   12.7292   10.9960   18.4597 C   0  0  0  0  0  0  0  0  0  0  0  0
    9.3798    6.6793   23.6625 C   0  0  0  0  0  0  0  0  0  0  0  0
   14.7425   10.0739   19.0802 O   0  0  0  0  0  0  0  0  0  0  0  0
    5.1894    9.4673   20.7118 C   0  0  0  0  0  0  0  0  0  0  0  0
    7.3773    8.8224   21.4870 C   0  0  0  0  0  0  0  0  0  0  0  0
    8.4391    6.6439   21.0235 C   0  0  0  0  0  0  0  0  0  0  0  0
    9.6494   11.1353   20.4167 C   0  0  0  0  0  0  0  0  0  0  0  0
    8.1431    7.6829   21.9046 C   0  0  0  0  0  0  0  0  0  0  0  0
    7.7796   10.1314   21.5115 N   0  0  0  0  0  0  0  0  0  0  0  0
    9.2768    5.6183   21.4437 C   0  0  0  0  0  0  0  0  0  0  0  0
    8.6315    7.7322   23.1768 C   0  0  0  0  0  0  0  0  0  0  0  0
   13.0537    9.9821   20.5781 C   0  0  0  0  0  0  0  0  0  0  0  0
   10.3850    4.6575   23.2386 O   0  0  0  0  0  0  0  0  0  0  0  0
    4.2069    6.8450   20.7994 C   0  0  0  0  0  0  0  0  0  0  0  0
    3.0726   10.1043   19.8522 O   0  0  0  0  0  0  0  0  0  0  0  0
    5.5057    7.1196   21.1155 C   0  0  0  0  0  0  0  0  0  0  0  0
    7.0367   11.0229   21.9948 O   0  0  0  0  0  0  0  0  0  0  0  0
  1  8  4  0
  1 12  4  0
  2  9  1  0
  2 11  4  0
  2 25  4  0
  3 12  4  0
  3 14  1  0
  3 23  4  0
  4 13  4  0
  4 21  4  0
  4 24  1  0
  5  8  4  0
  5 23  4  0
  6 18  2  0
  7 15  4  0
  7 16  1  0
  7 27  4  0
  8 18  1  0
 10 18  1  0
 10 20  1  0
 11 15  4  0
 11 26  1  0
 13 22  4  0
 16 19  1  0
 16 20  2  0
 17 19  4  0
 17 21  4  0
 19 22  4  0
 20 28  1  0
 25 27  4  0
M  END
$$$$

 Created by Python create_sdf_string function

 28 30  0  0  0  0  0  0  0  0999 V2000
   11.4592   11.2893   18.7941 C   0  0  0  0  0  0  0  0  0  0  0  0
    3.4202    7.9009   20.3866 C   0  0  0  0  0  0  0  0  0  0  0  0
   13.5280   10.3522   19.3586 C   0  0  0  0  0  0  0  0  0  0  0  0
    9.6923    5.6468   22.7891 C   0  0  0  0  0  0  0  0  0  0  0  0
   11.7756   10.2554   20.8841 N   0  0  0  0  0  0  0  0  0  0  0  0
    8.9876   11.9370   19.8757 O   0  0  0  0  0  0  0  0  0  0  0  0
    6.0167    8.4478   21.1089 C   0  0  0  0  0  0  0  0  0  0  0  0
   11.0002   10.8890   20.0262 C   0  0  0  0  0  0  0  0  0  0  0  0
    2.1721    7.7393   20.0315 O   0  0  0  0  0  0  0  0  0  0  0  0
    9.1107   10.3880   21.3769 N   0  0  0  0  0  0  0  0  0  0  0  0
    3.9102    9.2008   20.3124 C   0  0  0  0  0  0  0  0  0  0  0  0
   12.7292   10.9960   18.4597 C   0  0  0  0  0  0  0  0  0  0  0  0
    9.3798    6.6793   23.6625 C   0  0  0  0  0  0  0  0  0  0  0  0
   14.7425   10.0739   19.0802 O   0  0  0  0  0  0  0  0  0  0  0  0
    5.1894    9.4673   20.7118 C   0  0  0  0  0  0  0  0  0  0  0  0
    7.3773    8.8224   21.4870 C   0  0  0  0  0  0  0  0  0  0  0  0
    8.4391    6.6439   21.0235 C   0  0  0  0  0  0  0  0  0  0  0  0
    9.6494   11.1353   20.4167 C   0  0  0  0  0  0  0  0  0  0  0  0
    8.1431    7.6829   21.9046 C   0  0  0  0  0  0  0  0  0  0  0  0
    7.7796   10.1314   21.5115 N   0  0  0  0  0  0  0  0  0  0  0  0
    9.2768    5.6183   21.4437 C   0  0  0  0  0  0  0  0  0  0  0  0
    8.6315    7.7322   23.1768 C   0  0  0  0  0  0  0  0  0  0  0  0
   13.0537    9.9821   20.5781 C   0  0  0  0  0  0  0  0  0  0  0  0
   10.3850    4.6575   23.2386 O   0  0  0  0  0  0  0  0  0  0  0  0
    4.2069    6.8450   20.7994 C   0  0  0  0  0  0  0  0  0  0  0  0
    3.0726   10.1043   19.8522 O   0  0  0  0  0  0  0  0  0  0  0  0
    5.5057    7.1196   21.1155 C   0  0  0  0  0  0  0  0  0  0  0  0
    7.0367   11.0229   21.9948 O   0  0  0  0  0  0  0  0  0  0  0  0
  1  8  4  0
  1 12  4  0
  2  9  1  0
  2 11  4  0
  2 25  4  0
  3 12  4  0
  3 14  1  0
  3 23  4  0
  4 13  4  0
  4 21  4  0
  4 24  1  0
  5  8  4  0
  5 23  4  0
  6 18  2  0
  7 15  4  0
  7 16  1  0
  7 27  4  0
  8 18  1  0
 10 18  1  0
 10 20  1  0
 11 15  4  0
 11 26  1  0
 13 22  4  0
 16 19  1  0
 16 20  2  0
 17 19  4  0
 17 21  4  0
 19 22  4  0
 20 28  1  0
 25 27  4  0
M  END
$$$$

 Created by Python create_sdf_string function

 28 30  0  0  0  0  0  0  0  0999 V2000
   11.4592   11.2893   18.7941 C   0  0  0  0  0  0  0  0  0  0  0  0
    3.4202    7.9009   20.3866 C   0  0  0  0  0  0  0  0  0  0  0  0
   13.5280   10.3522   19.3586 C   0  0  0  0  0  0  0  0  0  0  0  0
    9.6923    5.6468   22.7891 C   0  0  0  0  0  0  0  0  0  0  0  0
   11.7756   10.2554   20.8841 N   0  0  0  0  0  0  0  0  0  0  0  0
    8.9876   11.9370   19.8757 O   0  0  0  0  0  0  0  0  0  0  0  0
    6.0167    8.4478   21.1089 C   0  0  0  0  0  0  0  0  0  0  0  0
   11.0002   10.8890   20.0262 C   0  0  0  0  0  0  0  0  0  0  0  0
    2.1721    7.7393   20.0315 O   0  0  0  0  0  0  0  0  0  0  0  0
    9.1107   10.3880   21.3769 N   0  0  0  0  0  0  0  0  0  0  0  0
    3.9102    9.2008   20.3124 C   0  0  0  0  0  0  0  0  0  0  0  0
   12.7292   10.9960   18.4597 C   0  0  0  0  0  0  0  0  0  0  0  0
    9.3798    6.6793   23.6625 C   0  0  0  0  0  0  0  0  0  0  0  0
   14.7425   10.0739   19.0802 O   0  0  0  0  0  0  0  0  0  0  0  0
    5.1894    9.4673   20.7118 C   0  0  0  0  0  0  0  0  0  0  0  0
    7.3773    8.8224   21.4870 C   0  0  0  0  0  0  0  0  0  0  0  0
    8.4391    6.6439   21.0235 C   0  0  0  0  0  0  0  0  0  0  0  0
    9.6494   11.1353   20.4167 C   0  0  0  0  0  0  0  0  0  0  0  0
    8.1431    7.6829   21.9046 C   0  0  0  0  0  0  0  0  0  0  0  0
    7.7796   10.1314   21.5115 N   0  0  0  0  0  0  0  0  0  0  0  0
    9.2768    5.6183   21.4437 C   0  0  0  0  0  0  0  0  0  0  0  0
    8.6315    7.7322   23.1768 C   0  0  0  0  0  0  0  0  0  0  0  0
   13.0537    9.9821   20.5781 C   0  0  0  0  0  0  0  0  0  0  0  0
   10.3850    4.6575   23.2386 O   0  0  0  0  0  0  0  0  0  0  0  0
    4.2069    6.8450   20.7994 C   0  0  0  0  0  0  0  0  0  0  0  0
    3.0726   10.1043   19.8522 O   0  0  0  0  0  0  0  0  0  0  0  0
    5.5057    7.1196   21.1155 C   0  0  0  0  0  0  0  0  0  0  0  0
    7.0367   11.0229   21.9948 O   0  0  0  0  0  0  0  0  0  0  0  0
  1  8  4  0
  1 12  4  0
  2  9  1  0
  2 11  4  0
  2 25  4  0
  3 12  4  0
  3 14  1  0
  3 23  4  0
  4 13  4  0
  4 21  4  0
  4 24  1  0
  5  8  4  0
  5 23  4  0
  6 18  2  0
  7 15  4  0
  7 16  1  0
  7 27  4  0
  8 18  1  0
 10 18  1  0
 10 20  1  0
 11 15  4  0
 11 26  1  0
 13 22  4  0
 16 19  1  0
 16 20  2  0
 17 19  4  0
 17 21  4  0
 19 22  4  0
 20 28  1  0
 25 27  4  0
M  END
$$$$

 Created by Python create_sdf_string function

 28 30  0  0  0  0  0  0  0  0999 V2000
   11.4592   11.2893   18.7941 C   0  0  0  0  0  0  0  0  0  0  0  0
    3.4202    7.9009   20.3866 C   0  0  0  0  0  0  0  0  0  0  0  0
   13.5280   10.3522   19.3586 C   0  0  0  0  0  0  0  0  0  0  0  0
    9.6923    5.6468   22.7891 C   0  0  0  0  0  0  0  0  0  0  0  0
   11.7756   10.2554   20.8841 N   0  0  0  0  0  0  0  0  0  0  0  0
    8.9876   11.9370   19.8757 O   0  0  0  0  0  0  0  0  0  0  0  0
    6.0167    8.4478   21.1089 C   0  0  0  0  0  0  0  0  0  0  0  0
   11.0002   10.8890   20.0262 C   0  0  0  0  0  0  0  0  0  0  0  0
    2.1721    7.7393   20.0315 O   0  0  0  0  0  0  0  0  0  0  0  0
    9.1107   10.3880   21.3769 N   0  0  0  0  0  0  0  0  0  0  0  0
    3.9102    9.2008   20.3124 C   0  0  0  0  0  0  0  0  0  0  0  0
   12.7292   10.9960   18.4597 C   0  0  0  0  0  0  0  0  0  0  0  0
    9.3798    6.6793   23.6625 C   0  0  0  0  0  0  0  0  0  0  0  0
   14.7425   10.0739   19.0802 O   0  0  0  0  0  0  0  0  0  0  0  0
    5.1894    9.4673   20.7118 C   0  0  0  0  0  0  0  0  0  0  0  0
    7.3773    8.8224   21.4870 C   0  0  0  0  0  0  0  0  0  0  0  0
    8.4391    6.6439   21.0235 C   0  0  0  0  0  0  0  0  0  0  0  0
    9.6494   11.1353   20.4167 C   0  0  0  0  0  0  0  0  0  0  0  0
    8.1431    7.6829   21.9046 C   0  0  0  0  0  0  0  0  0  0  0  0
    7.7796   10.1314   21.5115 N   0  0  0  0  0  0  0  0  0  0  0  0
    9.2768    5.6183   21.4437 C   0  0  0  0  0  0  0  0  0  0  0  0
    8.6315    7.7322   23.1768 C   0  0  0  0  0  0  0  0  0  0  0  0
   13.0537    9.9821   20.5781 C   0  0  0  0  0  0  0  0  0  0  0  0
   10.3850    4.6575   23.2386 O   0  0  0  0  0  0  0  0  0  0  0  0
    4.2069    6.8450   20.7994 C   0  0  0  0  0  0  0  0  0  0  0  0
    3.0726   10.1043   19.8522 O   0  0  0  0  0  0  0  0  0  0  0  0
    5.5057    7.1196   21.1155 C   0  0  0  0  0  0  0  0  0  0  0  0
    7.0367   11.0229   21.9948 O   0  0  0  0  0  0  0  0  0  0  0  0
  1  8  4  0
  1 12  4  0
  2  9  1  0
  2 11  4  0
  2 25  4  0
  3 12  4  0
  3 14  1  0
  3 23  4  0
  4 13  4  0
  4 21  4  0
  4 24  1  0
  5  8  4  0
  5 23  4  0
  6 18  2  0
  7 15  4  0
  7 16  1  0
  7 27  4  0
  8 18  1  0
 10 18  1  0
 10 20  1  0
 11 15  4  0
 11 26  1  0
 13 22  4  0
 16 19  1  0
 16 20  2  0
 17 19  4  0
 17 21  4  0
 19 22  4  0
 20 28  1  0
 25 27  4  0
M  END
$$$$

 Created by Python create_sdf_string function

 28 30  0  0  0  0  0  0  0  0999 V2000
   11.4592   11.2893   18.7941 C   0  0  0  0  0  0  0  0  0  0  0  0
    3.4202    7.9009   20.3866 C   0  0  0  0  0  0  0  0  0  0  0  0
   13.5280   10.3522   19.3586 C   0  0  0  0  0  0  0  0  0  0  0  0
    9.6923    5.6468   22.7891 C   0  0  0  0  0  0  0  0  0  0  0  0
   11.7756   10.2554   20.8841 N   0  0  0  0  0  0  0  0  0  0  0  0
    8.9876   11.9370   19.8757 O   0  0  0  0  0  0  0  0  0  0  0  0
    6.0167    8.4478   21.1089 C   0  0  0  0  0  0  0  0  0  0  0  0
   11.0002   10.8890   20.0262 C   0  0  0  0  0  0  0  0  0  0  0  0
    2.1721    7.7393   20.0315 O   0  0  0  0  0  0  0  0  0  0  0  0
    9.1107   10.3880   21.3769 N   0  0  0  0  0  0  0  0  0  0  0  0
    3.9102    9.2008   20.3124 C   0  0  0  0  0  0  0  0  0  0  0  0
   12.7292   10.9960   18.4597 C   0  0  0  0  0  0  0  0  0  0  0  0
    9.3798    6.6793   23.6625 C   0  0  0  0  0  0  0  0  0  0  0  0
   14.7425   10.0739   19.0802 O   0  0  0  0  0  0  0  0  0  0  0  0
    5.1894    9.4673   20.7118 C   0  0  0  0  0  0  0  0  0  0  0  0
    7.3773    8.8224   21.4870 C   0  0  0  0  0  0  0  0  0  0  0  0
    8.4391    6.6439   21.0235 C   0  0  0  0  0  0  0  0  0  0  0  0
    9.6494   11.1353   20.4167 C   0  0  0  0  0  0  0  0  0  0  0  0
    8.1431    7.6829   21.9046 C   0  0  0  0  0  0  0  0  0  0  0  0
    7.7796   10.1314   21.5115 N   0  0  0  0  0  0  0  0  0  0  0  0
    9.2768    5.6183   21.4437 C   0  0  0  0  0  0  0  0  0  0  0  0
    8.6315    7.7322   23.1768 C   0  0  0  0  0  0  0  0  0  0  0  0
   13.0537    9.9821   20.5781 C   0  0  0  0  0  0  0  0  0  0  0  0
   10.3850    4.6575   23.2386 O   0  0  0  0  0  0  0  0  0  0  0  0
    4.2069    6.8450   20.7994 C   0  0  0  0  0  0  0  0  0  0  0  0
    3.0726   10.1043   19.8522 O   0  0  0  0  0  0  0  0  0  0  0  0
    5.5057    7.1196   21.1155 C   0  0  0  0  0  0  0  0  0  0  0  0
    7.0367   11.0229   21.9948 O   0  0  0  0  0  0  0  0  0  0  0  0
  1  8  4  0
  1 12  4  0
  2  9  1  0
  2 11  4  0
  2 25  4  0
  3 12  4  0
  3 14  1  0
  3 23  4  0
  4 13  4  0
  4 21  4  0
  4 24  1  0
  5  8  4  0
  5 23  4  0
  6 18  2  0
  7 15  4  0
  7 16  1  0
  7 27  4  0
  8 18  1  0
 10 18  1  0
 10 20  1  0
 11 15  4  0
 11 26  1  0
 13 22  4  0
 16 19  1  0
 16 20  2  0
 17 19  4  0
 17 21  4  0
 19 22  4  0
 20 28  1  0
 25 27  4  0
M  END
$$$$

 Created by Python create_sdf_string function

 28 30  0  0  0  0  0  0  0  0999 V2000
   11.4592   11.2893   18.7941 C   0  0  0  0  0  0  0  0  0  0  0  0
    3.4202    7.9009   20.3866 C   0  0  0  0  0  0  0  0  0  0  0  0
   13.5280   10.3522   19.3586 C   0  0  0  0  0  0  0  0  0  0  0  0
    9.6923    5.6468   22.7891 C   0  0  0  0  0  0  0  0  0  0  0  0
   11.7756   10.2554   20.8841 N   0  0  0  0  0  0  0  0  0  0  0  0
    8.9876   11.9370   19.8757 O   0  0  0  0  0  0  0  0  0  0  0  0
    6.0167    8.4478   21.1089 C   0  0  0  0  0  0  0  0  0  0  0  0
   11.0002   10.8890   20.0262 C   0  0  0  0  0  0  0  0  0  0  0  0
    2.1721    7.7393   20.0315 O   0  0  0  0  0  0  0  0  0  0  0  0
    9.1107   10.3880   21.3769 N   0  0  0  0  0  0  0  0  0  0  0  0
    3.9102    9.2008   20.3124 C   0  0  0  0  0  0  0  0  0  0  0  0
   12.7292   10.9960   18.4597 C   0  0  0  0  0  0  0  0  0  0  0  0
    9.3798    6.6793   23.6625 C   0  0  0  0  0  0  0  0  0  0  0  0
   14.7425   10.0739   19.0802 O   0  0  0  0  0  0  0  0  0  0  0  0
    5.1894    9.4673   20.7118 C   0  0  0  0  0  0  0  0  0  0  0  0
    7.3773    8.8224   21.4870 C   0  0  0  0  0  0  0  0  0  0  0  0
    8.4391    6.6439   21.0235 C   0  0  0  0  0  0  0  0  0  0  0  0
    9.6494   11.1353   20.4167 C   0  0  0  0  0  0  0  0  0  0  0  0
    8.1431    7.6829   21.9046 C   0  0  0  0  0  0  0  0  0  0  0  0
    7.7796   10.1314   21.5115 N   0  0  0  0  0  0  0  0  0  0  0  0
    9.2768    5.6183   21.4437 C   0  0  0  0  0  0  0  0  0  0  0  0
    8.6315    7.7322   23.1768 C   0  0  0  0  0  0  0  0  0  0  0  0
   13.0537    9.9821   20.5781 C   0  0  0  0  0  0  0  0  0  0  0  0
   10.3850    4.6575   23.2386 O   0  0  0  0  0  0  0  0  0  0  0  0
    4.2069    6.8450   20.7994 C   0  0  0  0  0  0  0  0  0  0  0  0
    3.0726   10.1043   19.8522 O   0  0  0  0  0  0  0  0  0  0  0  0
    5.5057    7.1196   21.1155 C   0  0  0  0  0  0  0  0  0  0  0  0
    7.0367   11.0229   21.9948 O   0  0  0  0  0  0  0  0  0  0  0  0
  1  8  4  0
  1 12  4  0
  2  9  1  0
  2 11  4  0
  2 25  4  0
  3 12  4  0
  3 14  1  0
  3 23  4  0
  4 13  4  0
  4 21  4  0
  4 24  1  0
  5  8  4  0
  5 23  4  0
  6 18  2  0
  7 15  4  0
  7 16  1  0
  7 27  4  0
  8 18  1  0
 10 18  1  0
 10 20  1  0
 11 15  4  0
 11 26  1  0
 13 22  4  0
 16 19  1  0
 16 20  2  0
 17 19  4  0
 17 21  4  0
 19 22  4  0
 20 28  1  0
 25 27  4  0
M  END
$$$$

 Created by Python create_sdf_string function

 28 30  0  0  0  0  0  0  0  0999 V2000
   11.4592   11.2893   18.7941 C   0  0  0  0  0  0  0  0  0  0  0  0
    3.4202    7.9009   20.3866 C   0  0  0  0  0  0  0  0  0  0  0  0
   13.5280   10.3522   19.3586 C   0  0  0  0  0  0  0  0  0  0  0  0
    9.6923    5.6468   22.7891 C   0  0  0  0  0  0  0  0  0  0  0  0
   11.7756   10.2554   20.8841 N   0  0  0  0  0  0  0  0  0  0  0  0
    8.9876   11.9370   19.8757 O   0  0  0  0  0  0  0  0  0  0  0  0
    6.0167    8.4478   21.1089 C   0  0  0  0  0  0  0  0  0  0  0  0
   11.0002   10.8890   20.0262 C   0  0  0  0  0  0  0  0  0  0  0  0
    2.1721    7.7393   20.0315 O   0  0  0  0  0  0  0  0  0  0  0  0
    9.1107   10.3880   21.3769 N   0  0  0  0  0  0  0  0  0  0  0  0
    3.9102    9.2008   20.3124 C   0  0  0  0  0  0  0  0  0  0  0  0
   12.7292   10.9960   18.4597 C   0  0  0  0  0  0  0  0  0  0  0  0
    9.3798    6.6793   23.6625 C   0  0  0  0  0  0  0  0  0  0  0  0
   14.7425   10.0739   19.0802 O   0  0  0  0  0  0  0  0  0  0  0  0
    5.1894    9.4673   20.7118 C   0  0  0  0  0  0  0  0  0  0  0  0
    7.3773    8.8224   21.4870 C   0  0  0  0  0  0  0  0  0  0  0  0
    8.4391    6.6439   21.0235 C   0  0  0  0  0  0  0  0  0  0  0  0
    9.6494   11.1353   20.4167 C   0  0  0  0  0  0  0  0  0  0  0  0
    8.1431    7.6829   21.9046 C   0  0  0  0  0  0  0  0  0  0  0  0
    7.7796   10.1314   21.5115 N   0  0  0  0  0  0  0  0  0  0  0  0
    9.2768    5.6183   21.4437 C   0  0  0  0  0  0  0  0  0  0  0  0
    8.6315    7.7322   23.1768 C   0  0  0  0  0  0  0  0  0  0  0  0
   13.0537    9.9821   20.5781 C   0  0  0  0  0  0  0  0  0  0  0  0
   10.3850    4.6575   23.2386 O   0  0  0  0  0  0  0  0  0  0  0  0
    4.2069    6.8450   20.7994 C   0  0  0  0  0  0  0  0  0  0  0  0
    3.0726   10.1043   19.8522 O   0  0  0  0  0  0  0  0  0  0  0  0
    5.5057    7.1196   21.1155 C   0  0  0  0  0  0  0  0  0  0  0  0
    7.0367   11.0229   21.9948 O   0  0  0  0  0  0  0  0  0  0  0  0
  1  8  4  0
  1 12  4  0
  2  9  1  0
  2 11  4  0
  2 25  4  0
  3 12  4  0
  3 14  1  0
  3 23  4  0
  4 13  4  0
  4 21  4  0
  4 24  1  0
  5  8  4  0
  5 23  4  0
  6 18  2  0
  7 15  4  0
  7 16  1  0
  7 27  4  0
  8 18  1  0
 10 18  1  0
 10 20  1  0
 11 15  4  0
 11 26  1  0
 13 22  4  0
 16 19  1  0
 16 20  2  0
 17 19  4  0
 17 21  4  0
 19 22  4  0
 20 28  1  0
 25 27  4  0
M  END
$$$$

 Created by Python create_sdf_string function

 28 30  0  0  0  0  0  0  0  0999 V2000
   11.4592   11.2893   18.7941 C   0  0  0  0  0  0  0  0  0  0  0  0
    3.4202    7.9009   20.3866 C   0  0  0  0  0  0  0  0  0  0  0  0
   13.5280   10.3522   19.3586 C   0  0  0  0  0  0  0  0  0  0  0  0
    9.6923    5.6468   22.7891 C   0  0  0  0  0  0  0  0  0  0  0  0
   11.7756   10.2554   20.8841 N   0  0  0  0  0  0  0  0  0  0  0  0
    8.9876   11.9370   19.8757 O   0  0  0  0  0  0  0  0  0  0  0  0
    6.0167    8.4478   21.1089 C   0  0  0  0  0  0  0  0  0  0  0  0
   11.0002   10.8890   20.0262 C   0  0  0  0  0  0  0  0  0  0  0  0
    2.1721    7.7393   20.0315 O   0  0  0  0  0  0  0  0  0  0  0  0
    9.1107   10.3880   21.3769 N   0  0  0  0  0  0  0  0  0  0  0  0
    3.9102    9.2008   20.3124 C   0  0  0  0  0  0  0  0  0  0  0  0
   12.7292   10.9960   18.4597 C   0  0  0  0  0  0  0  0  0  0  0  0
    9.3798    6.6793   23.6625 C   0  0  0  0  0  0  0  0  0  0  0  0
   14.7425   10.0739   19.0802 O   0  0  0  0  0  0  0  0  0  0  0  0
    5.1894    9.4673   20.7118 C   0  0  0  0  0  0  0  0  0  0  0  0
    7.3773    8.8224   21.4870 C   0  0  0  0  0  0  0  0  0  0  0  0
    8.4391    6.6439   21.0235 C   0  0  0  0  0  0  0  0  0  0  0  0
    9.6494   11.1353   20.4167 C   0  0  0  0  0  0  0  0  0  0  0  0
    8.1431    7.6829   21.9046 C   0  0  0  0  0  0  0  0  0  0  0  0
    7.7796   10.1314   21.5115 N   0  0  0  0  0  0  0  0  0  0  0  0
    9.2768    5.6183   21.4437 C   0  0  0  0  0  0  0  0  0  0  0  0
    8.6315    7.7322   23.1768 C   0  0  0  0  0  0  0  0  0  0  0  0
   13.0537    9.9821   20.5781 C   0  0  0  0  0  0  0  0  0  0  0  0
   10.3850    4.6575   23.2386 O   0  0  0  0  0  0  0  0  0  0  0  0
    4.2069    6.8450   20.7994 C   0  0  0  0  0  0  0  0  0  0  0  0
    3.0726   10.1043   19.8522 O   0  0  0  0  0  0  0  0  0  0  0  0
    5.5057    7.1196   21.1155 C   0  0  0  0  0  0  0  0  0  0  0  0
    7.0367   11.0229   21.9948 O   0  0  0  0  0  0  0  0  0  0  0  0
  1  8  4  0
  1 12  4  0
  2  9  1  0
  2 11  4  0
  2 25  4  0
  3 12  4  0
  3 14  1  0
  3 23  4  0
  4 13  4  0
  4 21  4  0
  4 24  1  0
  5  8  4  0
  5 23  4  0
  6 18  2  0
  7 15  4  0
  7 16  1  0
  7 27  4  0
  8 18  1  0
 10 18  1  0
 10 20  1  0
 11 15  4  0
 11 26  1  0
 13 22  4  0
 16 19  1  0
 16 20  2  0
 17 19  4  0
 17 21  4  0
 19 22  4  0
 20 28  1  0
 25 27  4  0
M  END
$$$$

 Created by Python create_sdf_string function

 28 30  0  0  0  0  0  0  0  0999 V2000
   11.4592   11.2893   18.7941 C   0  0  0  0  0  0  0  0  0  0  0  0
    3.4202    7.9009   20.3866 C   0  0  0  0  0  0  0  0  0  0  0  0
   13.5280   10.3522   19.3586 C   0  0  0  0  0  0  0  0  0  0  0  0
    9.6923    5.6468   22.7891 C   0  0  0  0  0  0  0  0  0  0  0  0
   11.7756   10.2554   20.8841 N   0  0  0  0  0  0  0  0  0  0  0  0
    8.9876   11.9370   19.8757 O   0  0  0  0  0  0  0  0  0  0  0  0
    6.0167    8.4478   21.1089 C   0  0  0  0  0  0  0  0  0  0  0  0
   11.0002   10.8890   20.0262 C   0  0  0  0  0  0  0  0  0  0  0  0
    2.1721    7.7393   20.0315 O   0  0  0  0  0  0  0  0  0  0  0  0
    9.1107   10.3880   21.3769 N   0  0  0  0  0  0  0  0  0  0  0  0
    3.9102    9.2008   20.3124 C   0  0  0  0  0  0  0  0  0  0  0  0
   12.7292   10.9960   18.4597 C   0  0  0  0  0  0  0  0  0  0  0  0
    9.3798    6.6793   23.6625 C   0  0  0  0  0  0  0  0  0  0  0  0
   14.7425   10.0739   19.0802 O   0  0  0  0  0  0  0  0  0  0  0  0
    5.1894    9.4673   20.7118 C   0  0  0  0  0  0  0  0  0  0  0  0
    7.3773    8.8224   21.4870 C   0  0  0  0  0  0  0  0  0  0  0  0
    8.4391    6.6439   21.0235 C   0  0  0  0  0  0  0  0  0  0  0  0
    9.6494   11.1353   20.4167 C   0  0  0  0  0  0  0  0  0  0  0  0
    8.1431    7.6829   21.9046 C   0  0  0  0  0  0  0  0  0  0  0  0
    7.7796   10.1314   21.5115 N   0  0  0  0  0  0  0  0  0  0  0  0
    9.2768    5.6183   21.4437 C   0  0  0  0  0  0  0  0  0  0  0  0
    8.6315    7.7322   23.1768 C   0  0  0  0  0  0  0  0  0  0  0  0
   13.0537    9.9821   20.5781 C   0  0  0  0  0  0  0  0  0  0  0  0
   10.3850    4.6575   23.2386 O   0  0  0  0  0  0  0  0  0  0  0  0
    4.2069    6.8450   20.7994 C   0  0  0  0  0  0  0  0  0  0  0  0
    3.0726   10.1043   19.8522 O   0  0  0  0  0  0  0  0  0  0  0  0
    5.5057    7.1196   21.1155 C   0  0  0  0  0  0  0  0  0  0  0  0
    7.0367   11.0229   21.9948 O   0  0  0  0  0  0  0  0  0  0  0  0
  1  8  4  0
  1 12  4  0
  2  9  1  0
  2 11  4  0
  2 25  4  0
  3 12  4  0
  3 14  1  0
  3 23  4  0
  4 13  4  0
  4 21  4  0
  4 24  1  0
  5  8  4  0
  5 23  4  0
  6 18  2  0
  7 15  4  0
  7 16  1  0
  7 27  4  0
  8 18  1  0
 10 18  1  0
 10 20  1  0
 11 15  4  0
 11 26  1  0
 13 22  4  0
 16 19  1  0
 16 20  2  0
 17 19  4  0
 17 21  4  0
 19 22  4  0
 20 28  1  0
 25 27  4  0
M  END
$$$$

 Created by Python create_sdf_string function

 28 30  0  0  0  0  0  0  0  0999 V2000
   11.4592   11.2893   18.7941 C   0  0  0  0  0  0  0  0  0  0  0  0
    3.4202    7.9009   20.3866 C   0  0  0  0  0  0  0  0  0  0  0  0
   13.5280   10.3522   19.3586 C   0  0  0  0  0  0  0  0  0  0  0  0
    9.6923    5.6468   22.7891 C   0  0  0  0  0  0  0  0  0  0  0  0
   11.7756   10.2554   20.8841 N   0  0  0  0  0  0  0  0  0  0  0  0
    8.9876   11.9370   19.8757 O   0  0  0  0  0  0  0  0  0  0  0  0
    6.0167    8.4478   21.1089 C   0  0  0  0  0  0  0  0  0  0  0  0
   11.0002   10.8890   20.0262 C   0  0  0  0  0  0  0  0  0  0  0  0
    2.1721    7.7393   20.0315 O   0  0  0  0  0  0  0  0  0  0  0  0
    9.1107   10.3880   21.3769 N   0  0  0  0  0  0  0  0  0  0  0  0
    3.9102    9.2008   20.3124 C   0  0  0  0  0  0  0  0  0  0  0  0
   12.7292   10.9960   18.4597 C   0  0  0  0  0  0  0  0  0  0  0  0
    9.3798    6.6793   23.6625 C   0  0  0  0  0  0  0  0  0  0  0  0
   14.7425   10.0739   19.0802 O   0  0  0  0  0  0  0  0  0  0  0  0
    5.1894    9.4673   20.7118 C   0  0  0  0  0  0  0  0  0  0  0  0
    7.3773    8.8224   21.4870 C   0  0  0  0  0  0  0  0  0  0  0  0
    8.4391    6.6439   21.0235 C   0  0  0  0  0  0  0  0  0  0  0  0
    9.6494   11.1353   20.4167 C   0  0  0  0  0  0  0  0  0  0  0  0
    8.1431    7.6829   21.9046 C   0  0  0  0  0  0  0  0  0  0  0  0
    7.7796   10.1314   21.5115 N   0  0  0  0  0  0  0  0  0  0  0  0
    9.2768    5.6183   21.4437 C   0  0  0  0  0  0  0  0  0  0  0  0
    8.6315    7.7322   23.1768 C   0  0  0  0  0  0  0  0  0  0  0  0
   13.0537    9.9821   20.5781 C   0  0  0  0  0  0  0  0  0  0  0  0
   10.3850    4.6575   23.2386 O   0  0  0  0  0  0  0  0  0  0  0  0
    4.2069    6.8450   20.7994 C   0  0  0  0  0  0  0  0  0  0  0  0
    3.0726   10.1043   19.8522 O   0  0  0  0  0  0  0  0  0  0  0  0
    5.5057    7.1196   21.1155 C   0  0  0  0  0  0  0  0  0  0  0  0
    7.0367   11.0229   21.9948 O   0  0  0  0  0  0  0  0  0  0  0  0
  1  8  4  0
  1 12  4  0
  2  9  1  0
  2 11  4  0
  2 25  4  0
  3 12  4  0
  3 14  1  0
  3 23  4  0
  4 13  4  0
  4 21  4  0
  4 24  1  0
  5  8  4  0
  5 23  4  0
  6 18  2  0
  7 15  4  0
  7 16  1  0
  7 27  4  0
  8 18  1  0
 10 18  1  0
 10 20  1  0
 11 15  4  0
 11 26  1  0
 13 22  4  0
 16 19  1  0
 16 20  2  0
 17 19  4  0
 17 21  4  0
 19 22  4  0
 20 28  1  0
 25 27  4  0
M  END
$$$$

 Created by Python create_sdf_string function

 28 30  0  0  0  0  0  0  0  0999 V2000
   11.4592   11.2893   18.7941 C   0  0  0  0  0  0  0  0  0  0  0  0
    3.4202    7.9009   20.3866 C   0  0  0  0  0  0  0  0  0  0  0  0
   13.5280   10.3522   19.3586 C   0  0  0  0  0  0  0  0  0  0  0  0
    9.6923    5.6468   22.7891 C   0  0  0  0  0  0  0  0  0  0  0  0
   11.7756   10.2554   20.8841 N   0  0  0  0  0  0  0  0  0  0  0  0
    8.9876   11.9370   19.8757 O   0  0  0  0  0  0  0  0  0  0  0  0
    6.0167    8.4478   21.1089 C   0  0  0  0  0  0  0  0  0  0  0  0
   11.0002   10.8890   20.0262 C   0  0  0  0  0  0  0  0  0  0  0  0
    2.1721    7.7393   20.0315 O   0  0  0  0  0  0  0  0  0  0  0  0
    9.1107   10.3880   21.3769 N   0  0  0  0  0  0  0  0  0  0  0  0
    3.9102    9.2008   20.3124 C   0  0  0  0  0  0  0  0  0  0  0  0
   12.7292   10.9960   18.4597 C   0  0  0  0  0  0  0  0  0  0  0  0
    9.3798    6.6793   23.6625 C   0  0  0  0  0  0  0  0  0  0  0  0
   14.7425   10.0739   19.0802 O   0  0  0  0  0  0  0  0  0  0  0  0
    5.1894    9.4673   20.7118 C   0  0  0  0  0  0  0  0  0  0  0  0
    7.3773    8.8224   21.4870 C   0  0  0  0  0  0  0  0  0  0  0  0
    8.4391    6.6439   21.0235 C   0  0  0  0  0  0  0  0  0  0  0  0
    9.6494   11.1353   20.4167 C   0  0  0  0  0  0  0  0  0  0  0  0
    8.1431    7.6829   21.9046 C   0  0  0  0  0  0  0  0  0  0  0  0
    7.7796   10.1314   21.5115 N   0  0  0  0  0  0  0  0  0  0  0  0
    9.2768    5.6183   21.4437 C   0  0  0  0  0  0  0  0  0  0  0  0
    8.6315    7.7322   23.1768 C   0  0  0  0  0  0  0  0  0  0  0  0
   13.0537    9.9821   20.5781 C   0  0  0  0  0  0  0  0  0  0  0  0
   10.3850    4.6575   23.2386 O   0  0  0  0  0  0  0  0  0  0  0  0
    4.2069    6.8450   20.7994 C   0  0  0  0  0  0  0  0  0  0  0  0
    3.0726   10.1043   19.8522 O   0  0  0  0  0  0  0  0  0  0  0  0
    5.5057    7.1196   21.1155 C   0  0  0  0  0  0  0  0  0  0  0  0
    7.0367   11.0229   21.9948 O   0  0  0  0  0  0  0  0  0  0  0  0
  1  8  4  0
  1 12  4  0
  2  9  1  0
  2 11  4  0
  2 25  4  0
  3 12  4  0
  3 14  1  0
  3 23  4  0
  4 13  4  0
  4 21  4  0
  4 24  1  0
  5  8  4  0
  5 23  4  0
  6 18  2  0
  7 15  4  0
  7 16  1  0
  7 27  4  0
  8 18  1  0
 10 18  1  0
 10 20  1  0
 11 15  4  0
 11 26  1  0
 13 22  4  0
 16 19  1  0
 16 20  2  0
 17 19  4  0
 17 21  4  0
 19 22  4  0
 20 28  1  0
 25 27  4  0
M  END
$$$$

 Created by Python create_sdf_string function

 28 30  0  0  0  0  0  0  0  0999 V2000
   11.4592   11.2893   18.7941 C   0  0  0  0  0  0  0  0  0  0  0  0
    3.4202    7.9009   20.3866 C   0  0  0  0  0  0  0  0  0  0  0  0
   13.5280   10.3522   19.3586 C   0  0  0  0  0  0  0  0  0  0  0  0
    9.6923    5.6468   22.7891 C   0  0  0  0  0  0  0  0  0  0  0  0
   11.7756   10.2554   20.8841 N   0  0  0  0  0  0  0  0  0  0  0  0
    8.9876   11.9370   19.8757 O   0  0  0  0  0  0  0  0  0  0  0  0
    6.0167    8.4478   21.1089 C   0  0  0  0  0  0  0  0  0  0  0  0
   11.0002   10.8890   20.0262 C   0  0  0  0  0  0  0  0  0  0  0  0
    2.1721    7.7393   20.0315 O   0  0  0  0  0  0  0  0  0  0  0  0
    9.1107   10.3880   21.3769 N   0  0  0  0  0  0  0  0  0  0  0  0
    3.9102    9.2008   20.3124 C   0  0  0  0  0  0  0  0  0  0  0  0
   12.7292   10.9960   18.4597 C   0  0  0  0  0  0  0  0  0  0  0  0
    9.3798    6.6793   23.6625 C   0  0  0  0  0  0  0  0  0  0  0  0
   14.7425   10.0739   19.0802 O   0  0  0  0  0  0  0  0  0  0  0  0
    5.1894    9.4673   20.7118 C   0  0  0  0  0  0  0  0  0  0  0  0
    7.3773    8.8224   21.4870 C   0  0  0  0  0  0  0  0  0  0  0  0
    8.4391    6.6439   21.0235 C   0  0  0  0  0  0  0  0  0  0  0  0
    9.6494   11.1353   20.4167 C   0  0  0  0  0  0  0  0  0  0  0  0
    8.1431    7.6829   21.9046 C   0  0  0  0  0  0  0  0  0  0  0  0
    7.7796   10.1314   21.5115 N   0  0  0  0  0  0  0  0  0  0  0  0
    9.2768    5.6183   21.4437 C   0  0  0  0  0  0  0  0  0  0  0  0
    8.6315    7.7322   23.1768 C   0  0  0  0  0  0  0  0  0  0  0  0
   13.0537    9.9821   20.5781 C   0  0  0  0  0  0  0  0  0  0  0  0
   10.3850    4.6575   23.2386 O   0  0  0  0  0  0  0  0  0  0  0  0
    4.2069    6.8450   20.7994 C   0  0  0  0  0  0  0  0  0  0  0  0
    3.0726   10.1043   19.8522 O   0  0  0  0  0  0  0  0  0  0  0  0
    5.5057    7.1196   21.1155 C   0  0  0  0  0  0  0  0  0  0  0  0
    7.0367   11.0229   21.9948 O   0  0  0  0  0  0  0  0  0  0  0  0
  1  8  4  0
  1 12  4  0
  2  9  1  0
  2 11  4  0
  2 25  4  0
  3 12  4  0
  3 14  1  0
  3 23  4  0
  4 13  4  0
  4 21  4  0
  4 24  1  0
  5  8  4  0
  5 23  4  0
  6 18  2  0
  7 15  4  0
  7 16  1  0
  7 27  4  0
  8 18  1  0
 10 18  1  0
 10 20  1  0
 11 15  4  0
 11 26  1  0
 13 22  4  0
 16 19  1  0
 16 20  2  0
 17 19  4  0
 17 21  4  0
 19 22  4  0
 20 28  1  0
 25 27  4  0
M  END
$$$$

 Created by Python create_sdf_string function

 28 30  0  0  0  0  0  0  0  0999 V2000
   11.4592   11.2893   18.7941 C   0  0  0  0  0  0  0  0  0  0  0  0
    3.4202    7.9009   20.3866 C   0  0  0  0  0  0  0  0  0  0  0  0
   13.5280   10.3522   19.3586 C   0  0  0  0  0  0  0  0  0  0  0  0
    9.6923    5.6468   22.7891 C   0  0  0  0  0  0  0  0  0  0  0  0
   11.7756   10.2554   20.8841 N   0  0  0  0  0  0  0  0  0  0  0  0
    8.9876   11.9370   19.8757 O   0  0  0  0  0  0  0  0  0  0  0  0
    6.0167    8.4478   21.1089 C   0  0  0  0  0  0  0  0  0  0  0  0
   11.0002   10.8890   20.0262 C   0  0  0  0  0  0  0  0  0  0  0  0
    2.1721    7.7393   20.0315 O   0  0  0  0  0  0  0  0  0  0  0  0
    9.1107   10.3880   21.3769 N   0  0  0  0  0  0  0  0  0  0  0  0
    3.9102    9.2008   20.3124 C   0  0  0  0  0  0  0  0  0  0  0  0
   12.7292   10.9960   18.4597 C   0  0  0  0  0  0  0  0  0  0  0  0
    9.3798    6.6793   23.6625 C   0  0  0  0  0  0  0  0  0  0  0  0
   14.7425   10.0739   19.0802 O   0  0  0  0  0  0  0  0  0  0  0  0
    5.1894    9.4673   20.7118 C   0  0  0  0  0  0  0  0  0  0  0  0
    7.3773    8.8224   21.4870 C   0  0  0  0  0  0  0  0  0  0  0  0
    8.4391    6.6439   21.0235 C   0  0  0  0  0  0  0  0  0  0  0  0
    9.6494   11.1353   20.4167 C   0  0  0  0  0  0  0  0  0  0  0  0
    8.1431    7.6829   21.9046 C   0  0  0  0  0  0  0  0  0  0  0  0
    7.7796   10.1314   21.5115 N   0  0  0  0  0  0  0  0  0  0  0  0
    9.2768    5.6183   21.4437 C   0  0  0  0  0  0  0  0  0  0  0  0
    8.6315    7.7322   23.1768 C   0  0  0  0  0  0  0  0  0  0  0  0
   13.0537    9.9821   20.5781 C   0  0  0  0  0  0  0  0  0  0  0  0
   10.3850    4.6575   23.2386 O   0  0  0  0  0  0  0  0  0  0  0  0
    4.2069    6.8450   20.7994 C   0  0  0  0  0  0  0  0  0  0  0  0
    3.0726   10.1043   19.8522 O   0  0  0  0  0  0  0  0  0  0  0  0
    5.5057    7.1196   21.1155 C   0  0  0  0  0  0  0  0  0  0  0  0
    7.0367   11.0229   21.9948 O   0  0  0  0  0  0  0  0  0  0  0  0
  1  8  4  0
  1 12  4  0
  2  9  1  0
  2 11  4  0
  2 25  4  0
  3 12  4  0
  3 14  1  0
  3 23  4  0
  4 13  4  0
  4 21  4  0
  4 24  1  0
  5  8  4  0
  5 23  4  0
  6 18  2  0
  7 15  4  0
  7 16  1  0
  7 27  4  0
  8 18  1  0
 10 18  1  0
 10 20  1  0
 11 15  4  0
 11 26  1  0
 13 22  4  0
 16 19  1  0
 16 20  2  0
 17 19  4  0
 17 21  4  0
 19 22  4  0
 20 28  1  0
 25 27  4  0
M  END
$$$$

 Created by Python create_sdf_string function

 28 30  0  0  0  0  0  0  0  0999 V2000
   11.4592   11.2893   18.7941 C   0  0  0  0  0  0  0  0  0  0  0  0
    3.4202    7.9009   20.3866 C   0  0  0  0  0  0  0  0  0  0  0  0
   13.5280   10.3522   19.3586 C   0  0  0  0  0  0  0  0  0  0  0  0
    9.6923    5.6468   22.7891 C   0  0  0  0  0  0  0  0  0  0  0  0
   11.7756   10.2554   20.8841 N   0  0  0  0  0  0  0  0  0  0  0  0
    8.9876   11.9370   19.8757 O   0  0  0  0  0  0  0  0  0  0  0  0
    6.0167    8.4478   21.1089 C   0  0  0  0  0  0  0  0  0  0  0  0
   11.0002   10.8890   20.0262 C   0  0  0  0  0  0  0  0  0  0  0  0
    2.1721    7.7393   20.0315 O   0  0  0  0  0  0  0  0  0  0  0  0
    9.1107   10.3880   21.3769 N   0  0  0  0  0  0  0  0  0  0  0  0
    3.9102    9.2008   20.3124 C   0  0  0  0  0  0  0  0  0  0  0  0
   12.7292   10.9960   18.4597 C   0  0  0  0  0  0  0  0  0  0  0  0
    9.3798    6.6793   23.6625 C   0  0  0  0  0  0  0  0  0  0  0  0
   14.7425   10.0739   19.0802 O   0  0  0  0  0  0  0  0  0  0  0  0
    5.1894    9.4673   20.7118 C   0  0  0  0  0  0  0  0  0  0  0  0
    7.3773    8.8224   21.4870 C   0  0  0  0  0  0  0  0  0  0  0  0
    8.4391    6.6439   21.0235 C   0  0  0  0  0  0  0  0  0  0  0  0
    9.6494   11.1353   20.4167 C   0  0  0  0  0  0  0  0  0  0  0  0
    8.1431    7.6829   21.9046 C   0  0  0  0  0  0  0  0  0  0  0  0
    7.7796   10.1314   21.5115 N   0  0  0  0  0  0  0  0  0  0  0  0
    9.2768    5.6183   21.4437 C   0  0  0  0  0  0  0  0  0  0  0  0
    8.6315    7.7322   23.1768 C   0  0  0  0  0  0  0  0  0  0  0  0
   13.0537    9.9821   20.5781 C   0  0  0  0  0  0  0  0  0  0  0  0
   10.3850    4.6575   23.2386 O   0  0  0  0  0  0  0  0  0  0  0  0
    4.2069    6.8450   20.7994 C   0  0  0  0  0  0  0  0  0  0  0  0
    3.0726   10.1043   19.8522 O   0  0  0  0  0  0  0  0  0  0  0  0
    5.5057    7.1196   21.1155 C   0  0  0  0  0  0  0  0  0  0  0  0
    7.0367   11.0229   21.9948 O   0  0  0  0  0  0  0  0  0  0  0  0
  1  8  4  0
  1 12  4  0
  2  9  1  0
  2 11  4  0
  2 25  4  0
  3 12  4  0
  3 14  1  0
  3 23  4  0
  4 13  4  0
  4 21  4  0
  4 24  1  0
  5  8  4  0
  5 23  4  0
  6 18  2  0
  7 15  4  0
  7 16  1  0
  7 27  4  0
  8 18  1  0
 10 18  1  0
 10 20  1  0
 11 15  4  0
 11 26  1  0
 13 22  4  0
 16 19  1  0
 16 20  2  0
 17 19  4  0
 17 21  4  0
 19 22  4  0
 20 28  1  0
 25 27  4  0
M  END
$$$$

 Created by Python create_sdf_string function

 28 30  0  0  0  0  0  0  0  0999 V2000
   11.4592   11.2893   18.7941 C   0  0  0  0  0  0  0  0  0  0  0  0
    3.4202    7.9009   20.3866 C   0  0  0  0  0  0  0  0  0  0  0  0
   13.5280   10.3522   19.3586 C   0  0  0  0  0  0  0  0  0  0  0  0
    9.6923    5.6468   22.7891 C   0  0  0  0  0  0  0  0  0  0  0  0
   11.7756   10.2554   20.8841 N   0  0  0  0  0  0  0  0  0  0  0  0
    8.9876   11.9370   19.8757 O   0  0  0  0  0  0  0  0  0  0  0  0
    6.0167    8.4478   21.1089 C   0  0  0  0  0  0  0  0  0  0  0  0
   11.0002   10.8890   20.0262 C   0  0  0  0  0  0  0  0  0  0  0  0
    2.1721    7.7393   20.0315 O   0  0  0  0  0  0  0  0  0  0  0  0
    9.1107   10.3880   21.3769 N   0  0  0  0  0  0  0  0  0  0  0  0
    3.9102    9.2008   20.3124 C   0  0  0  0  0  0  0  0  0  0  0  0
   12.7292   10.9960   18.4597 C   0  0  0  0  0  0  0  0  0  0  0  0
    9.3798    6.6793   23.6625 C   0  0  0  0  0  0  0  0  0  0  0  0
   14.7425   10.0739   19.0802 O   0  0  0  0  0  0  0  0  0  0  0  0
    5.1894    9.4673   20.7118 C   0  0  0  0  0  0  0  0  0  0  0  0
    7.3773    8.8224   21.4870 C   0  0  0  0  0  0  0  0  0  0  0  0
    8.4391    6.6439   21.0235 C   0  0  0  0  0  0  0  0  0  0  0  0
    9.6494   11.1353   20.4167 C   0  0  0  0  0  0  0  0  0  0  0  0
    8.1431    7.6829   21.9046 C   0  0  0  0  0  0  0  0  0  0  0  0
    7.7796   10.1314   21.5115 N   0  0  0  0  0  0  0  0  0  0  0  0
    9.2768    5.6183   21.4437 C   0  0  0  0  0  0  0  0  0  0  0  0
    8.6315    7.7322   23.1768 C   0  0  0  0  0  0  0  0  0  0  0  0
   13.0537    9.9821   20.5781 C   0  0  0  0  0  0  0  0  0  0  0  0
   10.3850    4.6575   23.2386 O   0  0  0  0  0  0  0  0  0  0  0  0
    4.2069    6.8450   20.7994 C   0  0  0  0  0  0  0  0  0  0  0  0
    3.0726   10.1043   19.8522 O   0  0  0  0  0  0  0  0  0  0  0  0
    5.5057    7.1196   21.1155 C   0  0  0  0  0  0  0  0  0  0  0  0
    7.0367   11.0229   21.9948 O   0  0  0  0  0  0  0  0  0  0  0  0
  1  8  4  0
  1 12  4  0
  2  9  1  0
  2 11  4  0
  2 25  4  0
  3 12  4  0
  3 14  1  0
  3 23  4  0
  4 13  4  0
  4 21  4  0
  4 24  1  0
  5  8  4  0
  5 23  4  0
  6 18  2  0
  7 15  4  0
  7 16  1  0
  7 27  4  0
  8 18  1  0
 10 18  1  0
 10 20  1  0
 11 15  4  0
 11 26  1  0
 13 22  4  0
 16 19  1  0
 16 20  2  0
 17 19  4  0
 17 21  4  0
 19 22  4  0
 20 28  1  0
 25 27  4  0
M  END
$$$$

 Created by Python create_sdf_string function

 28 30  0  0  0  0  0  0  0  0999 V2000
   11.4592   11.2893   18.7941 C   0  0  0  0  0  0  0  0  0  0  0  0
    3.4202    7.9009   20.3866 C   0  0  0  0  0  0  0  0  0  0  0  0
   13.5280   10.3522   19.3586 C   0  0  0  0  0  0  0  0  0  0  0  0
    9.6923    5.6468   22.7891 C   0  0  0  0  0  0  0  0  0  0  0  0
   11.7756   10.2554   20.8841 N   0  0  0  0  0  0  0  0  0  0  0  0
    8.9876   11.9370   19.8757 O   0  0  0  0  0  0  0  0  0  0  0  0
    6.0167    8.4478   21.1089 C   0  0  0  0  0  0  0  0  0  0  0  0
   11.0002   10.8890   20.0262 C   0  0  0  0  0  0  0  0  0  0  0  0
    2.1721    7.7393   20.0315 O   0  0  0  0  0  0  0  0  0  0  0  0
    9.1107   10.3880   21.3769 N   0  0  0  0  0  0  0  0  0  0  0  0
    3.9102    9.2008   20.3124 C   0  0  0  0  0  0  0  0  0  0  0  0
   12.7292   10.9960   18.4597 C   0  0  0  0  0  0  0  0  0  0  0  0
    9.3798    6.6793   23.6625 C   0  0  0  0  0  0  0  0  0  0  0  0
   14.7425   10.0739   19.0802 O   0  0  0  0  0  0  0  0  0  0  0  0
    5.1894    9.4673   20.7118 C   0  0  0  0  0  0  0  0  0  0  0  0
    7.3773    8.8224   21.4870 C   0  0  0  0  0  0  0  0  0  0  0  0
    8.4391    6.6439   21.0235 C   0  0  0  0  0  0  0  0  0  0  0  0
    9.6494   11.1353   20.4167 C   0  0  0  0  0  0  0  0  0  0  0  0
    8.1431    7.6829   21.9046 C   0  0  0  0  0  0  0  0  0  0  0  0
    7.7796   10.1314   21.5115 N   0  0  0  0  0  0  0  0  0  0  0  0
    9.2768    5.6183   21.4437 C   0  0  0  0  0  0  0  0  0  0  0  0
    8.6315    7.7322   23.1768 C   0  0  0  0  0  0  0  0  0  0  0  0
   13.0537    9.9821   20.5781 C   0  0  0  0  0  0  0  0  0  0  0  0
   10.3850    4.6575   23.2386 O   0  0  0  0  0  0  0  0  0  0  0  0
    4.2069    6.8450   20.7994 C   0  0  0  0  0  0  0  0  0  0  0  0
    3.0726   10.1043   19.8522 O   0  0  0  0  0  0  0  0  0  0  0  0
    5.5057    7.1196   21.1155 C   0  0  0  0  0  0  0  0  0  0  0  0
    7.0367   11.0229   21.9948 O   0  0  0  0  0  0  0  0  0  0  0  0
  1  8  4  0
  1 12  4  0
  2  9  1  0
  2 11  4  0
  2 25  4  0
  3 12  4  0
  3 14  1  0
  3 23  4  0
  4 13  4  0
  4 21  4  0
  4 24  1  0
  5  8  4  0
  5 23  4  0
  6 18  2  0
  7 15  4  0
  7 16  1  0
  7 27  4  0
  8 18  1  0
 10 18  1  0
 10 20  1  0
 11 15  4  0
 11 26  1  0
 13 22  4  0
 16 19  1  0
 16 20  2  0
 17 19  4  0
 17 21  4  0
 19 22  4  0
 20 28  1  0
 25 27  4  0
M  END
$$$$

 Created by Python create_sdf_string function

 28 30  0  0  0  0  0  0  0  0999 V2000
   11.4592   11.2893   18.7941 C   0  0  0  0  0  0  0  0  0  0  0  0
    3.4202    7.9009   20.3866 C   0  0  0  0  0  0  0  0  0  0  0  0
   13.5280   10.3522   19.3586 C   0  0  0  0  0  0  0  0  0  0  0  0
    9.6923    5.6468   22.7891 C   0  0  0  0  0  0  0  0  0  0  0  0
   11.7756   10.2554   20.8841 N   0  0  0  0  0  0  0  0  0  0  0  0
    8.9876   11.9370   19.8757 O   0  0  0  0  0  0  0  0  0  0  0  0
    6.0167    8.4478   21.1089 C   0  0  0  0  0  0  0  0  0  0  0  0
   11.0002   10.8890   20.0262 C   0  0  0  0  0  0  0  0  0  0  0  0
    2.1721    7.7393   20.0315 O   0  0  0  0  0  0  0  0  0  0  0  0
    9.1107   10.3880   21.3769 N   0  0  0  0  0  0  0  0  0  0  0  0
    3.9102    9.2008   20.3124 C   0  0  0  0  0  0  0  0  0  0  0  0
   12.7292   10.9960   18.4597 C   0  0  0  0  0  0  0  0  0  0  0  0
    9.3798    6.6793   23.6625 C   0  0  0  0  0  0  0  0  0  0  0  0
   14.7425   10.0739   19.0802 O   0  0  0  0  0  0  0  0  0  0  0  0
    5.1894    9.4673   20.7118 C   0  0  0  0  0  0  0  0  0  0  0  0
    7.3773    8.8224   21.4870 C   0  0  0  0  0  0  0  0  0  0  0  0
    8.4391    6.6439   21.0235 C   0  0  0  0  0  0  0  0  0  0  0  0
    9.6494   11.1353   20.4167 C   0  0  0  0  0  0  0  0  0  0  0  0
    8.1431    7.6829   21.9046 C   0  0  0  0  0  0  0  0  0  0  0  0
    7.7796   10.1314   21.5115 N   0  0  0  0  0  0  0  0  0  0  0  0
    9.2768    5.6183   21.4437 C   0  0  0  0  0  0  0  0  0  0  0  0
    8.6315    7.7322   23.1768 C   0  0  0  0  0  0  0  0  0  0  0  0
   13.0537    9.9821   20.5781 C   0  0  0  0  0  0  0  0  0  0  0  0
   10.3850    4.6575   23.2386 O   0  0  0  0  0  0  0  0  0  0  0  0
    4.2069    6.8450   20.7994 C   0  0  0  0  0  0  0  0  0  0  0  0
    3.0726   10.1043   19.8522 O   0  0  0  0  0  0  0  0  0  0  0  0
    5.5057    7.1196   21.1155 C   0  0  0  0  0  0  0  0  0  0  0  0
    7.0367   11.0229   21.9948 O   0  0  0  0  0  0  0  0  0  0  0  0
  1  8  4  0
  1 12  4  0
  2  9  1  0
  2 11  4  0
  2 25  4  0
  3 12  4  0
  3 14  1  0
  3 23  4  0
  4 13  4  0
  4 21  4  0
  4 24  1  0
  5  8  4  0
  5 23  4  0
  6 18  2  0
  7 15  4  0
  7 16  1  0
  7 27  4  0
  8 18  1  0
 10 18  1  0
 10 20  1  0
 11 15  4  0
 11 26  1  0
 13 22  4  0
 16 19  1  0
 16 20  2  0
 17 19  4  0
 17 21  4  0
 19 22  4  0
 20 28  1  0
 25 27  4  0
M  END
$$$$

 Created by Python create_sdf_string function

 28 30  0  0  0  0  0  0  0  0999 V2000
   11.4592   11.2893   18.7941 C   0  0  0  0  0  0  0  0  0  0  0  0
    3.4202    7.9009   20.3866 C   0  0  0  0  0  0  0  0  0  0  0  0
   13.5280   10.3522   19.3586 C   0  0  0  0  0  0  0  0  0  0  0  0
    9.6923    5.6468   22.7891 C   0  0  0  0  0  0  0  0  0  0  0  0
   11.7756   10.2554   20.8841 N   0  0  0  0  0  0  0  0  0  0  0  0
    8.9876   11.9370   19.8757 O   0  0  0  0  0  0  0  0  0  0  0  0
    6.0167    8.4478   21.1089 C   0  0  0  0  0  0  0  0  0  0  0  0
   11.0002   10.8890   20.0262 C   0  0  0  0  0  0  0  0  0  0  0  0
    2.1721    7.7393   20.0315 O   0  0  0  0  0  0  0  0  0  0  0  0
    9.1107   10.3880   21.3769 N   0  0  0  0  0  0  0  0  0  0  0  0
    3.9102    9.2008   20.3124 C   0  0  0  0  0  0  0  0  0  0  0  0
   12.7292   10.9960   18.4597 C   0  0  0  0  0  0  0  0  0  0  0  0
    9.3798    6.6793   23.6625 C   0  0  0  0  0  0  0  0  0  0  0  0
   14.7425   10.0739   19.0802 O   0  0  0  0  0  0  0  0  0  0  0  0
    5.1894    9.4673   20.7118 C   0  0  0  0  0  0  0  0  0  0  0  0
    7.3773    8.8224   21.4870 C   0  0  0  0  0  0  0  0  0  0  0  0
    8.4391    6.6439   21.0235 C   0  0  0  0  0  0  0  0  0  0  0  0
    9.6494   11.1353   20.4167 C   0  0  0  0  0  0  0  0  0  0  0  0
    8.1431    7.6829   21.9046 C   0  0  0  0  0  0  0  0  0  0  0  0
    7.7796   10.1314   21.5115 N   0  0  0  0  0  0  0  0  0  0  0  0
    9.2768    5.6183   21.4437 C   0  0  0  0  0  0  0  0  0  0  0  0
    8.6315    7.7322   23.1768 C   0  0  0  0  0  0  0  0  0  0  0  0
   13.0537    9.9821   20.5781 C   0  0  0  0  0  0  0  0  0  0  0  0
   10.3850    4.6575   23.2386 O   0  0  0  0  0  0  0  0  0  0  0  0
    4.2069    6.8450   20.7994 C   0  0  0  0  0  0  0  0  0  0  0  0
    3.0726   10.1043   19.8522 O   0  0  0  0  0  0  0  0  0  0  0  0
    5.5057    7.1196   21.1155 C   0  0  0  0  0  0  0  0  0  0  0  0
    7.0367   11.0229   21.9948 O   0  0  0  0  0  0  0  0  0  0  0  0
  1  8  4  0
  1 12  4  0
  2  9  1  0
  2 11  4  0
  2 25  4  0
  3 12  4  0
  3 14  1  0
  3 23  4  0
  4 13  4  0
  4 21  4  0
  4 24  1  0
  5  8  4  0
  5 23  4  0
  6 18  2  0
  7 15  4  0
  7 16  1  0
  7 27  4  0
  8 18  1  0
 10 18  1  0
 10 20  1  0
 11 15  4  0
 11 26  1  0
 13 22  4  0
 16 19  1  0
 16 20  2  0
 17 19  4  0
 17 21  4  0
 19 22  4  0
 20 28  1  0
 25 27  4  0
M  END
$$$$

 Created by Python create_sdf_string function

 28 30  0  0  0  0  0  0  0  0999 V2000
   11.4592   11.2893   18.7941 C   0  0  0  0  0  0  0  0  0  0  0  0
    3.4202    7.9009   20.3866 C   0  0  0  0  0  0  0  0  0  0  0  0
   13.5280   10.3522   19.3586 C   0  0  0  0  0  0  0  0  0  0  0  0
    9.6923    5.6468   22.7891 C   0  0  0  0  0  0  0  0  0  0  0  0
   11.7756   10.2554   20.8841 N   0  0  0  0  0  0  0  0  0  0  0  0
    8.9876   11.9370   19.8757 O   0  0  0  0  0  0  0  0  0  0  0  0
    6.0167    8.4478   21.1089 C   0  0  0  0  0  0  0  0  0  0  0  0
   11.0002   10.8890   20.0262 C   0  0  0  0  0  0  0  0  0  0  0  0
    2.1721    7.7393   20.0315 O   0  0  0  0  0  0  0  0  0  0  0  0
    9.1107   10.3880   21.3769 N   0  0  0  0  0  0  0  0  0  0  0  0
    3.9102    9.2008   20.3124 C   0  0  0  0  0  0  0  0  0  0  0  0
   12.7292   10.9960   18.4597 C   0  0  0  0  0  0  0  0  0  0  0  0
    9.3798    6.6793   23.6625 C   0  0  0  0  0  0  0  0  0  0  0  0
   14.7425   10.0739   19.0802 O   0  0  0  0  0  0  0  0  0  0  0  0
    5.1894    9.4673   20.7118 C   0  0  0  0  0  0  0  0  0  0  0  0
    7.3773    8.8224   21.4870 C   0  0  0  0  0  0  0  0  0  0  0  0
    8.4391    6.6439   21.0235 C   0  0  0  0  0  0  0  0  0  0  0  0
    9.6494   11.1353   20.4167 C   0  0  0  0  0  0  0  0  0  0  0  0
    8.1431    7.6829   21.9046 C   0  0  0  0  0  0  0  0  0  0  0  0
    7.7796   10.1314   21.5115 N   0  0  0  0  0  0  0  0  0  0  0  0
    9.2768    5.6183   21.4437 C   0  0  0  0  0  0  0  0  0  0  0  0
    8.6315    7.7322   23.1768 C   0  0  0  0  0  0  0  0  0  0  0  0
   13.0537    9.9821   20.5781 C   0  0  0  0  0  0  0  0  0  0  0  0
   10.3850    4.6575   23.2386 O   0  0  0  0  0  0  0  0  0  0  0  0
    4.2069    6.8450   20.7994 C   0  0  0  0  0  0  0  0  0  0  0  0
    3.0726   10.1043   19.8522 O   0  0  0  0  0  0  0  0  0  0  0  0
    5.5057    7.1196   21.1155 C   0  0  0  0  0  0  0  0  0  0  0  0
    7.0367   11.0229   21.9948 O   0  0  0  0  0  0  0  0  0  0  0  0
  1  8  4  0
  1 12  4  0
  2  9  1  0
  2 11  4  0
  2 25  4  0
  3 12  4  0
  3 14  1  0
  3 23  4  0
  4 13  4  0
  4 21  4  0
  4 24  1  0
  5  8  4  0
  5 23  4  0
  6 18  2  0
  7 15  4  0
  7 16  1  0
  7 27  4  0
  8 18  1  0
 10 18  1  0
 10 20  1  0
 11 15  4  0
 11 26  1  0
 13 22  4  0
 16 19  1  0
 16 20  2  0
 17 19  4  0
 17 21  4  0
 19 22  4  0
 20 28  1  0
 25 27  4  0
M  END
$$$$

 Created by Python create_sdf_string function

 28 30  0  0  0  0  0  0  0  0999 V2000
   11.4592   11.2893   18.7941 C   0  0  0  0  0  0  0  0  0  0  0  0
    3.4202    7.9009   20.3866 C   0  0  0  0  0  0  0  0  0  0  0  0
   13.5280   10.3522   19.3586 C   0  0  0  0  0  0  0  0  0  0  0  0
    9.6923    5.6468   22.7891 C   0  0  0  0  0  0  0  0  0  0  0  0
   11.7756   10.2554   20.8841 N   0  0  0  0  0  0  0  0  0  0  0  0
    8.9876   11.9370   19.8757 O   0  0  0  0  0  0  0  0  0  0  0  0
    6.0167    8.4478   21.1089 C   0  0  0  0  0  0  0  0  0  0  0  0
   11.0002   10.8890   20.0262 C   0  0  0  0  0  0  0  0  0  0  0  0
    2.1721    7.7393   20.0315 O   0  0  0  0  0  0  0  0  0  0  0  0
    9.1107   10.3880   21.3769 N   0  0  0  0  0  0  0  0  0  0  0  0
    3.9102    9.2008   20.3124 C   0  0  0  0  0  0  0  0  0  0  0  0
   12.7292   10.9960   18.4597 C   0  0  0  0  0  0  0  0  0  0  0  0
    9.3798    6.6793   23.6625 C   0  0  0  0  0  0  0  0  0  0  0  0
   14.7425   10.0739   19.0802 O   0  0  0  0  0  0  0  0  0  0  0  0
    5.1894    9.4673   20.7118 C   0  0  0  0  0  0  0  0  0  0  0  0
    7.3773    8.8224   21.4870 C   0  0  0  0  0  0  0  0  0  0  0  0
    8.4391    6.6439   21.0235 C   0  0  0  0  0  0  0  0  0  0  0  0
    9.6494   11.1353   20.4167 C   0  0  0  0  0  0  0  0  0  0  0  0
    8.1431    7.6829   21.9046 C   0  0  0  0  0  0  0  0  0  0  0  0
    7.7796   10.1314   21.5115 N   0  0  0  0  0  0  0  0  0  0  0  0
    9.2768    5.6183   21.4437 C   0  0  0  0  0  0  0  0  0  0  0  0
    8.6315    7.7322   23.1768 C   0  0  0  0  0  0  0  0  0  0  0  0
   13.0537    9.9821   20.5781 C   0  0  0  0  0  0  0  0  0  0  0  0
   10.3850    4.6575   23.2386 O   0  0  0  0  0  0  0  0  0  0  0  0
    4.2069    6.8450   20.7994 C   0  0  0  0  0  0  0  0  0  0  0  0
    3.0726   10.1043   19.8522 O   0  0  0  0  0  0  0  0  0  0  0  0
    5.5057    7.1196   21.1155 C   0  0  0  0  0  0  0  0  0  0  0  0
    7.0367   11.0229   21.9948 O   0  0  0  0  0  0  0  0  0  0  0  0
  1  8  4  0
  1 12  4  0
  2  9  1  0
  2 11  4  0
  2 25  4  0
  3 12  4  0
  3 14  1  0
  3 23  4  0
  4 13  4  0
  4 21  4  0
  4 24  1  0
  5  8  4  0
  5 23  4  0
  6 18  2  0
  7 15  4  0
  7 16  1  0
  7 27  4  0
  8 18  1  0
 10 18  1  0
 10 20  1  0
 11 15  4  0
 11 26  1  0
 13 22  4  0
 16 19  1  0
 16 20  2  0
 17 19  4  0
 17 21  4  0
 19 22  4  0
 20 28  1  0
 25 27  4  0
M  END
$$$$

 Created by Python create_sdf_string function

 28 30  0  0  0  0  0  0  0  0999 V2000
   11.4592   11.2893   18.7941 C   0  0  0  0  0  0  0  0  0  0  0  0
    3.4202    7.9009   20.3866 C   0  0  0  0  0  0  0  0  0  0  0  0
   13.5280   10.3522   19.3586 C   0  0  0  0  0  0  0  0  0  0  0  0
    9.6923    5.6468   22.7891 C   0  0  0  0  0  0  0  0  0  0  0  0
   11.7756   10.2554   20.8841 N   0  0  0  0  0  0  0  0  0  0  0  0
    8.9876   11.9370   19.8757 O   0  0  0  0  0  0  0  0  0  0  0  0
    6.0167    8.4478   21.1089 C   0  0  0  0  0  0  0  0  0  0  0  0
   11.0002   10.8890   20.0262 C   0  0  0  0  0  0  0  0  0  0  0  0
    2.1721    7.7393   20.0315 O   0  0  0  0  0  0  0  0  0  0  0  0
    9.1107   10.3880   21.3769 N   0  0  0  0  0  0  0  0  0  0  0  0
    3.9102    9.2008   20.3124 C   0  0  0  0  0  0  0  0  0  0  0  0
   12.7292   10.9960   18.4597 C   0  0  0  0  0  0  0  0  0  0  0  0
    9.3798    6.6793   23.6625 C   0  0  0  0  0  0  0  0  0  0  0  0
   14.7425   10.0739   19.0802 O   0  0  0  0  0  0  0  0  0  0  0  0
    5.1894    9.4673   20.7118 C   0  0  0  0  0  0  0  0  0  0  0  0
    7.3773    8.8224   21.4870 C   0  0  0  0  0  0  0  0  0  0  0  0
    8.4391    6.6439   21.0235 C   0  0  0  0  0  0  0  0  0  0  0  0
    9.6494   11.1353   20.4167 C   0  0  0  0  0  0  0  0  0  0  0  0
    8.1431    7.6829   21.9046 C   0  0  0  0  0  0  0  0  0  0  0  0
    7.7796   10.1314   21.5115 N   0  0  0  0  0  0  0  0  0  0  0  0
    9.2768    5.6183   21.4437 C   0  0  0  0  0  0  0  0  0  0  0  0
    8.6315    7.7322   23.1768 C   0  0  0  0  0  0  0  0  0  0  0  0
   13.0537    9.9821   20.5781 C   0  0  0  0  0  0  0  0  0  0  0  0
   10.3850    4.6575   23.2386 O   0  0  0  0  0  0  0  0  0  0  0  0
    4.2069    6.8450   20.7994 C   0  0  0  0  0  0  0  0  0  0  0  0
    3.0726   10.1043   19.8522 O   0  0  0  0  0  0  0  0  0  0  0  0
    5.5057    7.1196   21.1155 C   0  0  0  0  0  0  0  0  0  0  0  0
    7.0367   11.0229   21.9948 O   0  0  0  0  0  0  0  0  0  0  0  0
  1  8  4  0
  1 12  4  0
  2  9  1  0
  2 11  4  0
  2 25  4  0
  3 12  4  0
  3 14  1  0
  3 23  4  0
  4 13  4  0
  4 21  4  0
  4 24  1  0
  5  8  4  0
  5 23  4  0
  6 18  2  0
  7 15  4  0
  7 16  1  0
  7 27  4  0
  8 18  1  0
 10 18  1  0
 10 20  1  0
 11 15  4  0
 11 26  1  0
 13 22  4  0
 16 19  1  0
 16 20  2  0
 17 19  4  0
 17 21  4  0
 19 22  4  0
 20 28  1  0
 25 27  4  0
M  END
$$$$

 Created by Python create_sdf_string function

 28 30  0  0  0  0  0  0  0  0999 V2000
   11.4592   11.2893   18.7941 C   0  0  0  0  0  0  0  0  0  0  0  0
    3.4202    7.9009   20.3866 C   0  0  0  0  0  0  0  0  0  0  0  0
   13.5280   10.3522   19.3586 C   0  0  0  0  0  0  0  0  0  0  0  0
    9.6923    5.6468   22.7891 C   0  0  0  0  0  0  0  0  0  0  0  0
   11.7756   10.2554   20.8841 N   0  0  0  0  0  0  0  0  0  0  0  0
    8.9876   11.9370   19.8757 O   0  0  0  0  0  0  0  0  0  0  0  0
    6.0167    8.4478   21.1089 C   0  0  0  0  0  0  0  0  0  0  0  0
   11.0002   10.8890   20.0262 C   0  0  0  0  0  0  0  0  0  0  0  0
    2.1721    7.7393   20.0315 O   0  0  0  0  0  0  0  0  0  0  0  0
    9.1107   10.3880   21.3769 N   0  0  0  0  0  0  0  0  0  0  0  0
    3.9102    9.2008   20.3124 C   0  0  0  0  0  0  0  0  0  0  0  0
   12.7292   10.9960   18.4597 C   0  0  0  0  0  0  0  0  0  0  0  0
    9.3798    6.6793   23.6625 C   0  0  0  0  0  0  0  0  0  0  0  0
   14.7425   10.0739   19.0802 O   0  0  0  0  0  0  0  0  0  0  0  0
    5.1894    9.4673   20.7118 C   0  0  0  0  0  0  0  0  0  0  0  0
    7.3773    8.8224   21.4870 C   0  0  0  0  0  0  0  0  0  0  0  0
    8.4391    6.6439   21.0235 C   0  0  0  0  0  0  0  0  0  0  0  0
    9.6494   11.1353   20.4167 C   0  0  0  0  0  0  0  0  0  0  0  0
    8.1431    7.6829   21.9046 C   0  0  0  0  0  0  0  0  0  0  0  0
    7.7796   10.1314   21.5115 N   0  0  0  0  0  0  0  0  0  0  0  0
    9.2768    5.6183   21.4437 C   0  0  0  0  0  0  0  0  0  0  0  0
    8.6315    7.7322   23.1768 C   0  0  0  0  0  0  0  0  0  0  0  0
   13.0537    9.9821   20.5781 C   0  0  0  0  0  0  0  0  0  0  0  0
   10.3850    4.6575   23.2386 O   0  0  0  0  0  0  0  0  0  0  0  0
    4.2069    6.8450   20.7994 C   0  0  0  0  0  0  0  0  0  0  0  0
    3.0726   10.1043   19.8522 O   0  0  0  0  0  0  0  0  0  0  0  0
    5.5057    7.1196   21.1155 C   0  0  0  0  0  0  0  0  0  0  0  0
    7.0367   11.0229   21.9948 O   0  0  0  0  0  0  0  0  0  0  0  0
  1  8  4  0
  1 12  4  0
  2  9  1  0
  2 11  4  0
  2 25  4  0
  3 12  4  0
  3 14  1  0
  3 23  4  0
  4 13  4  0
  4 21  4  0
  4 24  1  0
  5  8  4  0
  5 23  4  0
  6 18  2  0
  7 15  4  0
  7 16  1  0
  7 27  4  0
  8 18  1  0
 10 18  1  0
 10 20  1  0
 11 15  4  0
 11 26  1  0
 13 22  4  0
 16 19  1  0
 16 20  2  0
 17 19  4  0
 17 21  4  0
 19 22  4  0
 20 28  1  0
 25 27  4  0
M  END
$$$$

 Created by Python create_sdf_string function

 28 30  0  0  0  0  0  0  0  0999 V2000
   11.4592   11.2893   18.7941 C   0  0  0  0  0  0  0  0  0  0  0  0
    3.4202    7.9009   20.3866 C   0  0  0  0  0  0  0  0  0  0  0  0
   13.5280   10.3522   19.3586 C   0  0  0  0  0  0  0  0  0  0  0  0
    9.6923    5.6468   22.7891 C   0  0  0  0  0  0  0  0  0  0  0  0
   11.7756   10.2554   20.8841 N   0  0  0  0  0  0  0  0  0  0  0  0
    8.9876   11.9370   19.8757 O   0  0  0  0  0  0  0  0  0  0  0  0
    6.0167    8.4478   21.1089 C   0  0  0  0  0  0  0  0  0  0  0  0
   11.0002   10.8890   20.0262 C   0  0  0  0  0  0  0  0  0  0  0  0
    2.1721    7.7393   20.0315 O   0  0  0  0  0  0  0  0  0  0  0  0
    9.1107   10.3880   21.3769 N   0  0  0  0  0  0  0  0  0  0  0  0
    3.9102    9.2008   20.3124 C   0  0  0  0  0  0  0  0  0  0  0  0
   12.7292   10.9960   18.4597 C   0  0  0  0  0  0  0  0  0  0  0  0
    9.3798    6.6793   23.6625 C   0  0  0  0  0  0  0  0  0  0  0  0
   14.7425   10.0739   19.0802 O   0  0  0  0  0  0  0  0  0  0  0  0
    5.1894    9.4673   20.7118 C   0  0  0  0  0  0  0  0  0  0  0  0
    7.3773    8.8224   21.4870 C   0  0  0  0  0  0  0  0  0  0  0  0
    8.4391    6.6439   21.0235 C   0  0  0  0  0  0  0  0  0  0  0  0
    9.6494   11.1353   20.4167 C   0  0  0  0  0  0  0  0  0  0  0  0
    8.1431    7.6829   21.9046 C   0  0  0  0  0  0  0  0  0  0  0  0
    7.7796   10.1314   21.5115 N   0  0  0  0  0  0  0  0  0  0  0  0
    9.2768    5.6183   21.4437 C   0  0  0  0  0  0  0  0  0  0  0  0
    8.6315    7.7322   23.1768 C   0  0  0  0  0  0  0  0  0  0  0  0
   13.0537    9.9821   20.5781 C   0  0  0  0  0  0  0  0  0  0  0  0
   10.3850    4.6575   23.2386 O   0  0  0  0  0  0  0  0  0  0  0  0
    4.2069    6.8450   20.7994 C   0  0  0  0  0  0  0  0  0  0  0  0
    3.0726   10.1043   19.8522 O   0  0  0  0  0  0  0  0  0  0  0  0
    5.5057    7.1196   21.1155 C   0  0  0  0  0  0  0  0  0  0  0  0
    7.0367   11.0229   21.9948 O   0  0  0  0  0  0  0  0  0  0  0  0
  1  8  4  0
  1 12  4  0
  2  9  1  0
  2 11  4  0
  2 25  4  0
  3 12  4  0
  3 14  1  0
  3 23  4  0
  4 13  4  0
  4 21  4  0
  4 24  1  0
  5  8  4  0
  5 23  4  0
  6 18  2  0
  7 15  4  0
  7 16  1  0
  7 27  4  0
  8 18  1  0
 10 18  1  0
 10 20  1  0
 11 15  4  0
 11 26  1  0
 13 22  4  0
 16 19  1  0
 16 20  2  0
 17 19  4  0
 17 21  4  0
 19 22  4  0
 20 28  1  0
 25 27  4  0
M  END
$$$$

 Created by Python create_sdf_string function

 28 30  0  0  0  0  0  0  0  0999 V2000
   11.4592   11.2893   18.7941 C   0  0  0  0  0  0  0  0  0  0  0  0
    3.4202    7.9009   20.3866 C   0  0  0  0  0  0  0  0  0  0  0  0
   13.5280   10.3522   19.3586 C   0  0  0  0  0  0  0  0  0  0  0  0
    9.6923    5.6468   22.7891 C   0  0  0  0  0  0  0  0  0  0  0  0
   11.7756   10.2554   20.8841 N   0  0  0  0  0  0  0  0  0  0  0  0
    8.9876   11.9370   19.8757 O   0  0  0  0  0  0  0  0  0  0  0  0
    6.0167    8.4478   21.1089 C   0  0  0  0  0  0  0  0  0  0  0  0
   11.0002   10.8890   20.0262 C   0  0  0  0  0  0  0  0  0  0  0  0
    2.1721    7.7393   20.0315 O   0  0  0  0  0  0  0  0  0  0  0  0
    9.1107   10.3880   21.3769 N   0  0  0  0  0  0  0  0  0  0  0  0
    3.9102    9.2008   20.3124 C   0  0  0  0  0  0  0  0  0  0  0  0
   12.7292   10.9960   18.4597 C   0  0  0  0  0  0  0  0  0  0  0  0
    9.3798    6.6793   23.6625 C   0  0  0  0  0  0  0  0  0  0  0  0
   14.7425   10.0739   19.0802 O   0  0  0  0  0  0  0  0  0  0  0  0
    5.1894    9.4673   20.7118 C   0  0  0  0  0  0  0  0  0  0  0  0
    7.3773    8.8224   21.4870 C   0  0  0  0  0  0  0  0  0  0  0  0
    8.4391    6.6439   21.0235 C   0  0  0  0  0  0  0  0  0  0  0  0
    9.6494   11.1353   20.4167 C   0  0  0  0  0  0  0  0  0  0  0  0
    8.1431    7.6829   21.9046 C   0  0  0  0  0  0  0  0  0  0  0  0
    7.7796   10.1314   21.5115 N   0  0  0  0  0  0  0  0  0  0  0  0
    9.2768    5.6183   21.4437 C   0  0  0  0  0  0  0  0  0  0  0  0
    8.6315    7.7322   23.1768 C   0  0  0  0  0  0  0  0  0  0  0  0
   13.0537    9.9821   20.5781 C   0  0  0  0  0  0  0  0  0  0  0  0
   10.3850    4.6575   23.2386 O   0  0  0  0  0  0  0  0  0  0  0  0
    4.2069    6.8450   20.7994 C   0  0  0  0  0  0  0  0  0  0  0  0
    3.0726   10.1043   19.8522 O   0  0  0  0  0  0  0  0  0  0  0  0
    5.5057    7.1196   21.1155 C   0  0  0  0  0  0  0  0  0  0  0  0
    7.0367   11.0229   21.9948 O   0  0  0  0  0  0  0  0  0  0  0  0
  1  8  4  0
  1 12  4  0
  2  9  1  0
  2 11  4  0
  2 25  4  0
  3 12  4  0
  3 14  1  0
  3 23  4  0
  4 13  4  0
  4 21  4  0
  4 24  1  0
  5  8  4  0
  5 23  4  0
  6 18  2  0
  7 15  4  0
  7 16  1  0
  7 27  4  0
  8 18  1  0
 10 18  1  0
 10 20  1  0
 11 15  4  0
 11 26  1  0
 13 22  4  0
 16 19  1  0
 16 20  2  0
 17 19  4  0
 17 21  4  0
 19 22  4  0
 20 28  1  0
 25 27  4  0
M  END
$$$$

 Created by Python create_sdf_string function

 28 30  0  0  0  0  0  0  0  0999 V2000
   11.4592   11.2893   18.7941 C   0  0  0  0  0  0  0  0  0  0  0  0
    3.4202    7.9009   20.3866 C   0  0  0  0  0  0  0  0  0  0  0  0
   13.5280   10.3522   19.3586 C   0  0  0  0  0  0  0  0  0  0  0  0
    9.6923    5.6468   22.7891 C   0  0  0  0  0  0  0  0  0  0  0  0
   11.7756   10.2554   20.8841 N   0  0  0  0  0  0  0  0  0  0  0  0
    8.9876   11.9370   19.8757 O   0  0  0  0  0  0  0  0  0  0  0  0
    6.0167    8.4478   21.1089 C   0  0  0  0  0  0  0  0  0  0  0  0
   11.0002   10.8890   20.0262 C   0  0  0  0  0  0  0  0  0  0  0  0
    2.1721    7.7393   20.0315 O   0  0  0  0  0  0  0  0  0  0  0  0
    9.1107   10.3880   21.3769 N   0  0  0  0  0  0  0  0  0  0  0  0
    3.9102    9.2008   20.3124 C   0  0  0  0  0  0  0  0  0  0  0  0
   12.7292   10.9960   18.4597 C   0  0  0  0  0  0  0  0  0  0  0  0
    9.3798    6.6793   23.6625 C   0  0  0  0  0  0  0  0  0  0  0  0
   14.7425   10.0739   19.0802 O   0  0  0  0  0  0  0  0  0  0  0  0
    5.1894    9.4673   20.7118 C   0  0  0  0  0  0  0  0  0  0  0  0
    7.3773    8.8224   21.4870 C   0  0  0  0  0  0  0  0  0  0  0  0
    8.4391    6.6439   21.0235 C   0  0  0  0  0  0  0  0  0  0  0  0
    9.6494   11.1353   20.4167 C   0  0  0  0  0  0  0  0  0  0  0  0
    8.1431    7.6829   21.9046 C   0  0  0  0  0  0  0  0  0  0  0  0
    7.7796   10.1314   21.5115 N   0  0  0  0  0  0  0  0  0  0  0  0
    9.2768    5.6183   21.4437 C   0  0  0  0  0  0  0  0  0  0  0  0
    8.6315    7.7322   23.1768 C   0  0  0  0  0  0  0  0  0  0  0  0
   13.0537    9.9821   20.5781 C   0  0  0  0  0  0  0  0  0  0  0  0
   10.3850    4.6575   23.2386 O   0  0  0  0  0  0  0  0  0  0  0  0
    4.2069    6.8450   20.7994 C   0  0  0  0  0  0  0  0  0  0  0  0
    3.0726   10.1043   19.8522 O   0  0  0  0  0  0  0  0  0  0  0  0
    5.5057    7.1196   21.1155 C   0  0  0  0  0  0  0  0  0  0  0  0
    7.0367   11.0229   21.9948 O   0  0  0  0  0  0  0  0  0  0  0  0
  1  8  4  0
  1 12  4  0
  2  9  1  0
  2 11  4  0
  2 25  4  0
  3 12  4  0
  3 14  1  0
  3 23  4  0
  4 13  4  0
  4 21  4  0
  4 24  1  0
  5  8  4  0
  5 23  4  0
  6 18  2  0
  7 15  4  0
  7 16  1  0
  7 27  4  0
  8 18  1  0
 10 18  1  0
 10 20  1  0
 11 15  4  0
 11 26  1  0
 13 22  4  0
 16 19  1  0
 16 20  2  0
 17 19  4  0
 17 21  4  0
 19 22  4  0
 20 28  1  0
 25 27  4  0
M  END
$$$$

 Created by Python create_sdf_string function

 28 30  0  0  0  0  0  0  0  0999 V2000
   11.4592   11.2893   18.7941 C   0  0  0  0  0  0  0  0  0  0  0  0
    3.4202    7.9009   20.3866 C   0  0  0  0  0  0  0  0  0  0  0  0
   13.5280   10.3522   19.3586 C   0  0  0  0  0  0  0  0  0  0  0  0
    9.6923    5.6468   22.7891 C   0  0  0  0  0  0  0  0  0  0  0  0
   11.7756   10.2554   20.8841 N   0  0  0  0  0  0  0  0  0  0  0  0
    8.9876   11.9370   19.8757 O   0  0  0  0  0  0  0  0  0  0  0  0
    6.0167    8.4478   21.1089 C   0  0  0  0  0  0  0  0  0  0  0  0
   11.0002   10.8890   20.0262 C   0  0  0  0  0  0  0  0  0  0  0  0
    2.1721    7.7393   20.0315 O   0  0  0  0  0  0  0  0  0  0  0  0
    9.1107   10.3880   21.3769 N   0  0  0  0  0  0  0  0  0  0  0  0
    3.9102    9.2008   20.3124 C   0  0  0  0  0  0  0  0  0  0  0  0
   12.7292   10.9960   18.4597 C   0  0  0  0  0  0  0  0  0  0  0  0
    9.3798    6.6793   23.6625 C   0  0  0  0  0  0  0  0  0  0  0  0
   14.7425   10.0739   19.0802 O   0  0  0  0  0  0  0  0  0  0  0  0
    5.1894    9.4673   20.7118 C   0  0  0  0  0  0  0  0  0  0  0  0
    7.3773    8.8224   21.4870 C   0  0  0  0  0  0  0  0  0  0  0  0
    8.4391    6.6439   21.0235 C   0  0  0  0  0  0  0  0  0  0  0  0
    9.6494   11.1353   20.4167 C   0  0  0  0  0  0  0  0  0  0  0  0
    8.1431    7.6829   21.9046 C   0  0  0  0  0  0  0  0  0  0  0  0
    7.7796   10.1314   21.5115 N   0  0  0  0  0  0  0  0  0  0  0  0
    9.2768    5.6183   21.4437 C   0  0  0  0  0  0  0  0  0  0  0  0
    8.6315    7.7322   23.1768 C   0  0  0  0  0  0  0  0  0  0  0  0
   13.0537    9.9821   20.5781 C   0  0  0  0  0  0  0  0  0  0  0  0
   10.3850    4.6575   23.2386 O   0  0  0  0  0  0  0  0  0  0  0  0
    4.2069    6.8450   20.7994 C   0  0  0  0  0  0  0  0  0  0  0  0
    3.0726   10.1043   19.8522 O   0  0  0  0  0  0  0  0  0  0  0  0
    5.5057    7.1196   21.1155 C   0  0  0  0  0  0  0  0  0  0  0  0
    7.0367   11.0229   21.9948 O   0  0  0  0  0  0  0  0  0  0  0  0
  1  8  4  0
  1 12  4  0
  2  9  1  0
  2 11  4  0
  2 25  4  0
  3 12  4  0
  3 14  1  0
  3 23  4  0
  4 13  4  0
  4 21  4  0
  4 24  1  0
  5  8  4  0
  5 23  4  0
  6 18  2  0
  7 15  4  0
  7 16  1  0
  7 27  4  0
  8 18  1  0
 10 18  1  0
 10 20  1  0
 11 15  4  0
 11 26  1  0
 13 22  4  0
 16 19  1  0
 16 20  2  0
 17 19  4  0
 17 21  4  0
 19 22  4  0
 20 28  1  0
 25 27  4  0
M  END
$$$$

 Created by Python create_sdf_string function

 28 30  0  0  0  0  0  0  0  0999 V2000
   11.4592   11.2893   18.7941 C   0  0  0  0  0  0  0  0  0  0  0  0
    3.4202    7.9009   20.3866 C   0  0  0  0  0  0  0  0  0  0  0  0
   13.5280   10.3522   19.3586 C   0  0  0  0  0  0  0  0  0  0  0  0
    9.6923    5.6468   22.7891 C   0  0  0  0  0  0  0  0  0  0  0  0
   11.7756   10.2554   20.8841 N   0  0  0  0  0  0  0  0  0  0  0  0
    8.9876   11.9370   19.8757 O   0  0  0  0  0  0  0  0  0  0  0  0
    6.0167    8.4478   21.1089 C   0  0  0  0  0  0  0  0  0  0  0  0
   11.0002   10.8890   20.0262 C   0  0  0  0  0  0  0  0  0  0  0  0
    2.1721    7.7393   20.0315 O   0  0  0  0  0  0  0  0  0  0  0  0
    9.1107   10.3880   21.3769 N   0  0  0  0  0  0  0  0  0  0  0  0
    3.9102    9.2008   20.3124 C   0  0  0  0  0  0  0  0  0  0  0  0
   12.7292   10.9960   18.4597 C   0  0  0  0  0  0  0  0  0  0  0  0
    9.3798    6.6793   23.6625 C   0  0  0  0  0  0  0  0  0  0  0  0
   14.7425   10.0739   19.0802 O   0  0  0  0  0  0  0  0  0  0  0  0
    5.1894    9.4673   20.7118 C   0  0  0  0  0  0  0  0  0  0  0  0
    7.3773    8.8224   21.4870 C   0  0  0  0  0  0  0  0  0  0  0  0
    8.4391    6.6439   21.0235 C   0  0  0  0  0  0  0  0  0  0  0  0
    9.6494   11.1353   20.4167 C   0  0  0  0  0  0  0  0  0  0  0  0
    8.1431    7.6829   21.9046 C   0  0  0  0  0  0  0  0  0  0  0  0
    7.7796   10.1314   21.5115 N   0  0  0  0  0  0  0  0  0  0  0  0
    9.2768    5.6183   21.4437 C   0  0  0  0  0  0  0  0  0  0  0  0
    8.6315    7.7322   23.1768 C   0  0  0  0  0  0  0  0  0  0  0  0
   13.0537    9.9821   20.5781 C   0  0  0  0  0  0  0  0  0  0  0  0
   10.3850    4.6575   23.2386 O   0  0  0  0  0  0  0  0  0  0  0  0
    4.2069    6.8450   20.7994 C   0  0  0  0  0  0  0  0  0  0  0  0
    3.0726   10.1043   19.8522 O   0  0  0  0  0  0  0  0  0  0  0  0
    5.5057    7.1196   21.1155 C   0  0  0  0  0  0  0  0  0  0  0  0
    7.0367   11.0229   21.9948 O   0  0  0  0  0  0  0  0  0  0  0  0
  1  8  4  0
  1 12  4  0
  2  9  1  0
  2 11  4  0
  2 25  4  0
  3 12  4  0
  3 14  1  0
  3 23  4  0
  4 13  4  0
  4 21  4  0
  4 24  1  0
  5  8  4  0
  5 23  4  0
  6 18  2  0
  7 15  4  0
  7 16  1  0
  7 27  4  0
  8 18  1  0
 10 18  1  0
 10 20  1  0
 11 15  4  0
 11 26  1  0
 13 22  4  0
 16 19  1  0
 16 20  2  0
 17 19  4  0
 17 21  4  0
 19 22  4  0
 20 28  1  0
 25 27  4  0
M  END
$$$$

 Created by Python create_sdf_string function

 28 30  0  0  0  0  0  0  0  0999 V2000
   11.4592   11.2893   18.7941 C   0  0  0  0  0  0  0  0  0  0  0  0
    3.4202    7.9009   20.3866 C   0  0  0  0  0  0  0  0  0  0  0  0
   13.5280   10.3522   19.3586 C   0  0  0  0  0  0  0  0  0  0  0  0
    9.6923    5.6468   22.7891 C   0  0  0  0  0  0  0  0  0  0  0  0
   11.7756   10.2554   20.8841 N   0  0  0  0  0  0  0  0  0  0  0  0
    8.9876   11.9370   19.8757 O   0  0  0  0  0  0  0  0  0  0  0  0
    6.0167    8.4478   21.1089 C   0  0  0  0  0  0  0  0  0  0  0  0
   11.0002   10.8890   20.0262 C   0  0  0  0  0  0  0  0  0  0  0  0
    2.1721    7.7393   20.0315 O   0  0  0  0  0  0  0  0  0  0  0  0
    9.1107   10.3880   21.3769 N   0  0  0  0  0  0  0  0  0  0  0  0
    3.9102    9.2008   20.3124 C   0  0  0  0  0  0  0  0  0  0  0  0
   12.7292   10.9960   18.4597 C   0  0  0  0  0  0  0  0  0  0  0  0
    9.3798    6.6793   23.6625 C   0  0  0  0  0  0  0  0  0  0  0  0
   14.7425   10.0739   19.0802 O   0  0  0  0  0  0  0  0  0  0  0  0
    5.1894    9.4673   20.7118 C   0  0  0  0  0  0  0  0  0  0  0  0
    7.3773    8.8224   21.4870 C   0  0  0  0  0  0  0  0  0  0  0  0
    8.4391    6.6439   21.0235 C   0  0  0  0  0  0  0  0  0  0  0  0
    9.6494   11.1353   20.4167 C   0  0  0  0  0  0  0  0  0  0  0  0
    8.1431    7.6829   21.9046 C   0  0  0  0  0  0  0  0  0  0  0  0
    7.7796   10.1314   21.5115 N   0  0  0  0  0  0  0  0  0  0  0  0
    9.2768    5.6183   21.4437 C   0  0  0  0  0  0  0  0  0  0  0  0
    8.6315    7.7322   23.1768 C   0  0  0  0  0  0  0  0  0  0  0  0
   13.0537    9.9821   20.5781 C   0  0  0  0  0  0  0  0  0  0  0  0
   10.3850    4.6575   23.2386 O   0  0  0  0  0  0  0  0  0  0  0  0
    4.2069    6.8450   20.7994 C   0  0  0  0  0  0  0  0  0  0  0  0
    3.0726   10.1043   19.8522 O   0  0  0  0  0  0  0  0  0  0  0  0
    5.5057    7.1196   21.1155 C   0  0  0  0  0  0  0  0  0  0  0  0
    7.0367   11.0229   21.9948 O   0  0  0  0  0  0  0  0  0  0  0  0
  1  8  4  0
  1 12  4  0
  2  9  1  0
  2 11  4  0
  2 25  4  0
  3 12  4  0
  3 14  1  0
  3 23  4  0
  4 13  4  0
  4 21  4  0
  4 24  1  0
  5  8  4  0
  5 23  4  0
  6 18  2  0
  7 15  4  0
  7 16  1  0
  7 27  4  0
  8 18  1  0
 10 18  1  0
 10 20  1  0
 11 15  4  0
 11 26  1  0
 13 22  4  0
 16 19  1  0
 16 20  2  0
 17 19  4  0
 17 21  4  0
 19 22  4  0
 20 28  1  0
 25 27  4  0
M  END
$$$$

 Created by Python create_sdf_string function

 28 30  0  0  0  0  0  0  0  0999 V2000
   11.4592   11.2893   18.7941 C   0  0  0  0  0  0  0  0  0  0  0  0
    3.4202    7.9009   20.3866 C   0  0  0  0  0  0  0  0  0  0  0  0
   13.5280   10.3522   19.3586 C   0  0  0  0  0  0  0  0  0  0  0  0
    9.6923    5.6468   22.7891 C   0  0  0  0  0  0  0  0  0  0  0  0
   11.7756   10.2554   20.8841 N   0  0  0  0  0  0  0  0  0  0  0  0
    8.9876   11.9370   19.8757 O   0  0  0  0  0  0  0  0  0  0  0  0
    6.0167    8.4478   21.1089 C   0  0  0  0  0  0  0  0  0  0  0  0
   11.0002   10.8890   20.0262 C   0  0  0  0  0  0  0  0  0  0  0  0
    2.1721    7.7393   20.0315 O   0  0  0  0  0  0  0  0  0  0  0  0
    9.1107   10.3880   21.3769 N   0  0  0  0  0  0  0  0  0  0  0  0
    3.9102    9.2008   20.3124 C   0  0  0  0  0  0  0  0  0  0  0  0
   12.7292   10.9960   18.4597 C   0  0  0  0  0  0  0  0  0  0  0  0
    9.3798    6.6793   23.6625 C   0  0  0  0  0  0  0  0  0  0  0  0
   14.7425   10.0739   19.0802 O   0  0  0  0  0  0  0  0  0  0  0  0
    5.1894    9.4673   20.7118 C   0  0  0  0  0  0  0  0  0  0  0  0
    7.3773    8.8224   21.4870 C   0  0  0  0  0  0  0  0  0  0  0  0
    8.4391    6.6439   21.0235 C   0  0  0  0  0  0  0  0  0  0  0  0
    9.6494   11.1353   20.4167 C   0  0  0  0  0  0  0  0  0  0  0  0
    8.1431    7.6829   21.9046 C   0  0  0  0  0  0  0  0  0  0  0  0
    7.7796   10.1314   21.5115 N   0  0  0  0  0  0  0  0  0  0  0  0
    9.2768    5.6183   21.4437 C   0  0  0  0  0  0  0  0  0  0  0  0
    8.6315    7.7322   23.1768 C   0  0  0  0  0  0  0  0  0  0  0  0
   13.0537    9.9821   20.5781 C   0  0  0  0  0  0  0  0  0  0  0  0
   10.3850    4.6575   23.2386 O   0  0  0  0  0  0  0  0  0  0  0  0
    4.2069    6.8450   20.7994 C   0  0  0  0  0  0  0  0  0  0  0  0
    3.0726   10.1043   19.8522 O   0  0  0  0  0  0  0  0  0  0  0  0
    5.5057    7.1196   21.1155 C   0  0  0  0  0  0  0  0  0  0  0  0
    7.0367   11.0229   21.9948 O   0  0  0  0  0  0  0  0  0  0  0  0
  1  8  4  0
  1 12  4  0
  2  9  1  0
  2 11  4  0
  2 25  4  0
  3 12  4  0
  3 14  1  0
  3 23  4  0
  4 13  4  0
  4 21  4  0
  4 24  1  0
  5  8  4  0
  5 23  4  0
  6 18  2  0
  7 15  4  0
  7 16  1  0
  7 27  4  0
  8 18  1  0
 10 18  1  0
 10 20  1  0
 11 15  4  0
 11 26  1  0
 13 22  4  0
 16 19  1  0
 16 20  2  0
 17 19  4  0
 17 21  4  0
 19 22  4  0
 20 28  1  0
 25 27  4  0
M  END
$$$$

 Created by Python create_sdf_string function

 28 30  0  0  0  0  0  0  0  0999 V2000
   11.4592   11.2893   18.7941 C   0  0  0  0  0  0  0  0  0  0  0  0
    3.4202    7.9009   20.3866 C   0  0  0  0  0  0  0  0  0  0  0  0
   13.5280   10.3522   19.3586 C   0  0  0  0  0  0  0  0  0  0  0  0
    9.6923    5.6468   22.7891 C   0  0  0  0  0  0  0  0  0  0  0  0
   11.7756   10.2554   20.8841 N   0  0  0  0  0  0  0  0  0  0  0  0
    8.9876   11.9370   19.8757 O   0  0  0  0  0  0  0  0  0  0  0  0
    6.0167    8.4478   21.1089 C   0  0  0  0  0  0  0  0  0  0  0  0
   11.0002   10.8890   20.0262 C   0  0  0  0  0  0  0  0  0  0  0  0
    2.1721    7.7393   20.0315 O   0  0  0  0  0  0  0  0  0  0  0  0
    9.1107   10.3880   21.3769 N   0  0  0  0  0  0  0  0  0  0  0  0
    3.9102    9.2008   20.3124 C   0  0  0  0  0  0  0  0  0  0  0  0
   12.7292   10.9960   18.4597 C   0  0  0  0  0  0  0  0  0  0  0  0
    9.3798    6.6793   23.6625 C   0  0  0  0  0  0  0  0  0  0  0  0
   14.7425   10.0739   19.0802 O   0  0  0  0  0  0  0  0  0  0  0  0
    5.1894    9.4673   20.7118 C   0  0  0  0  0  0  0  0  0  0  0  0
    7.3773    8.8224   21.4870 C   0  0  0  0  0  0  0  0  0  0  0  0
    8.4391    6.6439   21.0235 C   0  0  0  0  0  0  0  0  0  0  0  0
    9.6494   11.1353   20.4167 C   0  0  0  0  0  0  0  0  0  0  0  0
    8.1431    7.6829   21.9046 C   0  0  0  0  0  0  0  0  0  0  0  0
    7.7796   10.1314   21.5115 N   0  0  0  0  0  0  0  0  0  0  0  0
    9.2768    5.6183   21.4437 C   0  0  0  0  0  0  0  0  0  0  0  0
    8.6315    7.7322   23.1768 C   0  0  0  0  0  0  0  0  0  0  0  0
   13.0537    9.9821   20.5781 C   0  0  0  0  0  0  0  0  0  0  0  0
   10.3850    4.6575   23.2386 O   0  0  0  0  0  0  0  0  0  0  0  0
    4.2069    6.8450   20.7994 C   0  0  0  0  0  0  0  0  0  0  0  0
    3.0726   10.1043   19.8522 O   0  0  0  0  0  0  0  0  0  0  0  0
    5.5057    7.1196   21.1155 C   0  0  0  0  0  0  0  0  0  0  0  0
    7.0367   11.0229   21.9948 O   0  0  0  0  0  0  0  0  0  0  0  0
  1  8  4  0
  1 12  4  0
  2  9  1  0
  2 11  4  0
  2 25  4  0
  3 12  4  0
  3 14  1  0
  3 23  4  0
  4 13  4  0
  4 21  4  0
  4 24  1  0
  5  8  4  0
  5 23  4  0
  6 18  2  0
  7 15  4  0
  7 16  1  0
  7 27  4  0
  8 18  1  0
 10 18  1  0
 10 20  1  0
 11 15  4  0
 11 26  1  0
 13 22  4  0
 16 19  1  0
 16 20  2  0
 17 19  4  0
 17 21  4  0
 19 22  4  0
 20 28  1  0
 25 27  4  0
M  END
$$$$

 Created by Python create_sdf_string function

 28 30  0  0  0  0  0  0  0  0999 V2000
   11.4592   11.2893   18.7941 C   0  0  0  0  0  0  0  0  0  0  0  0
    3.4202    7.9009   20.3866 C   0  0  0  0  0  0  0  0  0  0  0  0
   13.5280   10.3522   19.3586 C   0  0  0  0  0  0  0  0  0  0  0  0
    9.6923    5.6468   22.7891 C   0  0  0  0  0  0  0  0  0  0  0  0
   11.7756   10.2554   20.8841 N   0  0  0  0  0  0  0  0  0  0  0  0
    8.9876   11.9370   19.8757 O   0  0  0  0  0  0  0  0  0  0  0  0
    6.0167    8.4478   21.1089 C   0  0  0  0  0  0  0  0  0  0  0  0
   11.0002   10.8890   20.0262 C   0  0  0  0  0  0  0  0  0  0  0  0
    2.1721    7.7393   20.0315 O   0  0  0  0  0  0  0  0  0  0  0  0
    9.1107   10.3880   21.3769 N   0  0  0  0  0  0  0  0  0  0  0  0
    3.9102    9.2008   20.3124 C   0  0  0  0  0  0  0  0  0  0  0  0
   12.7292   10.9960   18.4597 C   0  0  0  0  0  0  0  0  0  0  0  0
    9.3798    6.6793   23.6625 C   0  0  0  0  0  0  0  0  0  0  0  0
   14.7425   10.0739   19.0802 O   0  0  0  0  0  0  0  0  0  0  0  0
    5.1894    9.4673   20.7118 C   0  0  0  0  0  0  0  0  0  0  0  0
    7.3773    8.8224   21.4870 C   0  0  0  0  0  0  0  0  0  0  0  0
    8.4391    6.6439   21.0235 C   0  0  0  0  0  0  0  0  0  0  0  0
    9.6494   11.1353   20.4167 C   0  0  0  0  0  0  0  0  0  0  0  0
    8.1431    7.6829   21.9046 C   0  0  0  0  0  0  0  0  0  0  0  0
    7.7796   10.1314   21.5115 N   0  0  0  0  0  0  0  0  0  0  0  0
    9.2768    5.6183   21.4437 C   0  0  0  0  0  0  0  0  0  0  0  0
    8.6315    7.7322   23.1768 C   0  0  0  0  0  0  0  0  0  0  0  0
   13.0537    9.9821   20.5781 C   0  0  0  0  0  0  0  0  0  0  0  0
   10.3850    4.6575   23.2386 O   0  0  0  0  0  0  0  0  0  0  0  0
    4.2069    6.8450   20.7994 C   0  0  0  0  0  0  0  0  0  0  0  0
    3.0726   10.1043   19.8522 O   0  0  0  0  0  0  0  0  0  0  0  0
    5.5057    7.1196   21.1155 C   0  0  0  0  0  0  0  0  0  0  0  0
    7.0367   11.0229   21.9948 O   0  0  0  0  0  0  0  0  0  0  0  0
  1  8  4  0
  1 12  4  0
  2  9  1  0
  2 11  4  0
  2 25  4  0
  3 12  4  0
  3 14  1  0
  3 23  4  0
  4 13  4  0
  4 21  4  0
  4 24  1  0
  5  8  4  0
  5 23  4  0
  6 18  2  0
  7 15  4  0
  7 16  1  0
  7 27  4  0
  8 18  1  0
 10 18  1  0
 10 20  1  0
 11 15  4  0
 11 26  1  0
 13 22  4  0
 16 19  1  0
 16 20  2  0
 17 19  4  0
 17 21  4  0
 19 22  4  0
 20 28  1  0
 25 27  4  0
M  END
$$$$

 Created by Python create_sdf_string function

 28 30  0  0  0  0  0  0  0  0999 V2000
   11.4592   11.2893   18.7941 C   0  0  0  0  0  0  0  0  0  0  0  0
    3.4202    7.9009   20.3866 C   0  0  0  0  0  0  0  0  0  0  0  0
   13.5280   10.3522   19.3586 C   0  0  0  0  0  0  0  0  0  0  0  0
    9.6923    5.6468   22.7891 C   0  0  0  0  0  0  0  0  0  0  0  0
   11.7756   10.2554   20.8841 N   0  0  0  0  0  0  0  0  0  0  0  0
    8.9876   11.9370   19.8757 O   0  0  0  0  0  0  0  0  0  0  0  0
    6.0167    8.4478   21.1089 C   0  0  0  0  0  0  0  0  0  0  0  0
   11.0002   10.8890   20.0262 C   0  0  0  0  0  0  0  0  0  0  0  0
    2.1721    7.7393   20.0315 O   0  0  0  0  0  0  0  0  0  0  0  0
    9.1107   10.3880   21.3769 N   0  0  0  0  0  0  0  0  0  0  0  0
    3.9102    9.2008   20.3124 C   0  0  0  0  0  0  0  0  0  0  0  0
   12.7292   10.9960   18.4597 C   0  0  0  0  0  0  0  0  0  0  0  0
    9.3798    6.6793   23.6625 C   0  0  0  0  0  0  0  0  0  0  0  0
   14.7425   10.0739   19.0802 O   0  0  0  0  0  0  0  0  0  0  0  0
    5.1894    9.4673   20.7118 C   0  0  0  0  0  0  0  0  0  0  0  0
    7.3773    8.8224   21.4870 C   0  0  0  0  0  0  0  0  0  0  0  0
    8.4391    6.6439   21.0235 C   0  0  0  0  0  0  0  0  0  0  0  0
    9.6494   11.1353   20.4167 C   0  0  0  0  0  0  0  0  0  0  0  0
    8.1431    7.6829   21.9046 C   0  0  0  0  0  0  0  0  0  0  0  0
    7.7796   10.1314   21.5115 N   0  0  0  0  0  0  0  0  0  0  0  0
    9.2768    5.6183   21.4437 C   0  0  0  0  0  0  0  0  0  0  0  0
    8.6315    7.7322   23.1768 C   0  0  0  0  0  0  0  0  0  0  0  0
   13.0537    9.9821   20.5781 C   0  0  0  0  0  0  0  0  0  0  0  0
   10.3850    4.6575   23.2386 O   0  0  0  0  0  0  0  0  0  0  0  0
    4.2069    6.8450   20.7994 C   0  0  0  0  0  0  0  0  0  0  0  0
    3.0726   10.1043   19.8522 O   0  0  0  0  0  0  0  0  0  0  0  0
    5.5057    7.1196   21.1155 C   0  0  0  0  0  0  0  0  0  0  0  0
    7.0367   11.0229   21.9948 O   0  0  0  0  0  0  0  0  0  0  0  0
  1  8  4  0
  1 12  4  0
  2  9  1  0
  2 11  4  0
  2 25  4  0
  3 12  4  0
  3 14  1  0
  3 23  4  0
  4 13  4  0
  4 21  4  0
  4 24  1  0
  5  8  4  0
  5 23  4  0
  6 18  2  0
  7 15  4  0
  7 16  1  0
  7 27  4  0
  8 18  1  0
 10 18  1  0
 10 20  1  0
 11 15  4  0
 11 26  1  0
 13 22  4  0
 16 19  1  0
 16 20  2  0
 17 19  4  0
 17 21  4  0
 19 22  4  0
 20 28  1  0
 25 27  4  0
M  END
$$$$

 Created by Python create_sdf_string function

 28 30  0  0  0  0  0  0  0  0999 V2000
   11.4592   11.2893   18.7941 C   0  0  0  0  0  0  0  0  0  0  0  0
    3.4202    7.9009   20.3866 C   0  0  0  0  0  0  0  0  0  0  0  0
   13.5280   10.3522   19.3586 C   0  0  0  0  0  0  0  0  0  0  0  0
    9.6923    5.6468   22.7891 C   0  0  0  0  0  0  0  0  0  0  0  0
   11.7756   10.2554   20.8841 N   0  0  0  0  0  0  0  0  0  0  0  0
    8.9876   11.9370   19.8757 O   0  0  0  0  0  0  0  0  0  0  0  0
    6.0167    8.4478   21.1089 C   0  0  0  0  0  0  0  0  0  0  0  0
   11.0002   10.8890   20.0262 C   0  0  0  0  0  0  0  0  0  0  0  0
    2.1721    7.7393   20.0315 O   0  0  0  0  0  0  0  0  0  0  0  0
    9.1107   10.3880   21.3769 N   0  0  0  0  0  0  0  0  0  0  0  0
    3.9102    9.2008   20.3124 C   0  0  0  0  0  0  0  0  0  0  0  0
   12.7292   10.9960   18.4597 C   0  0  0  0  0  0  0  0  0  0  0  0
    9.3798    6.6793   23.6625 C   0  0  0  0  0  0  0  0  0  0  0  0
   14.7425   10.0739   19.0802 O   0  0  0  0  0  0  0  0  0  0  0  0
    5.1894    9.4673   20.7118 C   0  0  0  0  0  0  0  0  0  0  0  0
    7.3773    8.8224   21.4870 C   0  0  0  0  0  0  0  0  0  0  0  0
    8.4391    6.6439   21.0235 C   0  0  0  0  0  0  0  0  0  0  0  0
    9.6494   11.1353   20.4167 C   0  0  0  0  0  0  0  0  0  0  0  0
    8.1431    7.6829   21.9046 C   0  0  0  0  0  0  0  0  0  0  0  0
    7.7796   10.1314   21.5115 N   0  0  0  0  0  0  0  0  0  0  0  0
    9.2768    5.6183   21.4437 C   0  0  0  0  0  0  0  0  0  0  0  0
    8.6315    7.7322   23.1768 C   0  0  0  0  0  0  0  0  0  0  0  0
   13.0537    9.9821   20.5781 C   0  0  0  0  0  0  0  0  0  0  0  0
   10.3850    4.6575   23.2386 O   0  0  0  0  0  0  0  0  0  0  0  0
    4.2069    6.8450   20.7994 C   0  0  0  0  0  0  0  0  0  0  0  0
    3.0726   10.1043   19.8522 O   0  0  0  0  0  0  0  0  0  0  0  0
    5.5057    7.1196   21.1155 C   0  0  0  0  0  0  0  0  0  0  0  0
    7.0367   11.0229   21.9948 O   0  0  0  0  0  0  0  0  0  0  0  0
  1  8  4  0
  1 12  4  0
  2  9  1  0
  2 11  4  0
  2 25  4  0
  3 12  4  0
  3 14  1  0
  3 23  4  0
  4 13  4  0
  4 21  4  0
  4 24  1  0
  5  8  4  0
  5 23  4  0
  6 18  2  0
  7 15  4  0
  7 16  1  0
  7 27  4  0
  8 18  1  0
 10 18  1  0
 10 20  1  0
 11 15  4  0
 11 26  1  0
 13 22  4  0
 16 19  1  0
 16 20  2  0
 17 19  4  0
 17 21  4  0
 19 22  4  0
 20 28  1  0
 25 27  4  0
M  END
$$$$

 Created by Python create_sdf_string function

 28 30  0  0  0  0  0  0  0  0999 V2000
   11.4592   11.2893   18.7941 C   0  0  0  0  0  0  0  0  0  0  0  0
    3.4202    7.9009   20.3866 C   0  0  0  0  0  0  0  0  0  0  0  0
   13.5280   10.3522   19.3586 C   0  0  0  0  0  0  0  0  0  0  0  0
    9.6923    5.6468   22.7891 C   0  0  0  0  0  0  0  0  0  0  0  0
   11.7756   10.2554   20.8841 N   0  0  0  0  0  0  0  0  0  0  0  0
    8.9876   11.9370   19.8757 O   0  0  0  0  0  0  0  0  0  0  0  0
    6.0167    8.4478   21.1089 C   0  0  0  0  0  0  0  0  0  0  0  0
   11.0002   10.8890   20.0262 C   0  0  0  0  0  0  0  0  0  0  0  0
    2.1721    7.7393   20.0315 O   0  0  0  0  0  0  0  0  0  0  0  0
    9.1107   10.3880   21.3769 N   0  0  0  0  0  0  0  0  0  0  0  0
    3.9102    9.2008   20.3124 C   0  0  0  0  0  0  0  0  0  0  0  0
   12.7292   10.9960   18.4597 C   0  0  0  0  0  0  0  0  0  0  0  0
    9.3798    6.6793   23.6625 C   0  0  0  0  0  0  0  0  0  0  0  0
   14.7425   10.0739   19.0802 O   0  0  0  0  0  0  0  0  0  0  0  0
    5.1894    9.4673   20.7118 C   0  0  0  0  0  0  0  0  0  0  0  0
    7.3773    8.8224   21.4870 C   0  0  0  0  0  0  0  0  0  0  0  0
    8.4391    6.6439   21.0235 C   0  0  0  0  0  0  0  0  0  0  0  0
    9.6494   11.1353   20.4167 C   0  0  0  0  0  0  0  0  0  0  0  0
    8.1431    7.6829   21.9046 C   0  0  0  0  0  0  0  0  0  0  0  0
    7.7796   10.1314   21.5115 N   0  0  0  0  0  0  0  0  0  0  0  0
    9.2768    5.6183   21.4437 C   0  0  0  0  0  0  0  0  0  0  0  0
    8.6315    7.7322   23.1768 C   0  0  0  0  0  0  0  0  0  0  0  0
   13.0537    9.9821   20.5781 C   0  0  0  0  0  0  0  0  0  0  0  0
   10.3850    4.6575   23.2386 O   0  0  0  0  0  0  0  0  0  0  0  0
    4.2069    6.8450   20.7994 C   0  0  0  0  0  0  0  0  0  0  0  0
    3.0726   10.1043   19.8522 O   0  0  0  0  0  0  0  0  0  0  0  0
    5.5057    7.1196   21.1155 C   0  0  0  0  0  0  0  0  0  0  0  0
    7.0367   11.0229   21.9948 O   0  0  0  0  0  0  0  0  0  0  0  0
  1  8  4  0
  1 12  4  0
  2  9  1  0
  2 11  4  0
  2 25  4  0
  3 12  4  0
  3 14  1  0
  3 23  4  0
  4 13  4  0
  4 21  4  0
  4 24  1  0
  5  8  4  0
  5 23  4  0
  6 18  2  0
  7 15  4  0
  7 16  1  0
  7 27  4  0
  8 18  1  0
 10 18  1  0
 10 20  1  0
 11 15  4  0
 11 26  1  0
 13 22  4  0
 16 19  1  0
 16 20  2  0
 17 19  4  0
 17 21  4  0
 19 22  4  0
 20 28  1  0
 25 27  4  0
M  END
$$$$

 Created by Python create_sdf_string function

 28 30  0  0  0  0  0  0  0  0999 V2000
   11.4592   11.2893   18.7941 C   0  0  0  0  0  0  0  0  0  0  0  0
    3.4202    7.9009   20.3866 C   0  0  0  0  0  0  0  0  0  0  0  0
   13.5280   10.3522   19.3586 C   0  0  0  0  0  0  0  0  0  0  0  0
    9.6923    5.6468   22.7891 C   0  0  0  0  0  0  0  0  0  0  0  0
   11.7756   10.2554   20.8841 N   0  0  0  0  0  0  0  0  0  0  0  0
    8.9876   11.9370   19.8757 O   0  0  0  0  0  0  0  0  0  0  0  0
    6.0167    8.4478   21.1089 C   0  0  0  0  0  0  0  0  0  0  0  0
   11.0002   10.8890   20.0262 C   0  0  0  0  0  0  0  0  0  0  0  0
    2.1721    7.7393   20.0315 O   0  0  0  0  0  0  0  0  0  0  0  0
    9.1107   10.3880   21.3769 N   0  0  0  0  0  0  0  0  0  0  0  0
    3.9102    9.2008   20.3124 C   0  0  0  0  0  0  0  0  0  0  0  0
   12.7292   10.9960   18.4597 C   0  0  0  0  0  0  0  0  0  0  0  0
    9.3798    6.6793   23.6625 C   0  0  0  0  0  0  0  0  0  0  0  0
   14.7425   10.0739   19.0802 O   0  0  0  0  0  0  0  0  0  0  0  0
    5.1894    9.4673   20.7118 C   0  0  0  0  0  0  0  0  0  0  0  0
    7.3773    8.8224   21.4870 C   0  0  0  0  0  0  0  0  0  0  0  0
    8.4391    6.6439   21.0235 C   0  0  0  0  0  0  0  0  0  0  0  0
    9.6494   11.1353   20.4167 C   0  0  0  0  0  0  0  0  0  0  0  0
    8.1431    7.6829   21.9046 C   0  0  0  0  0  0  0  0  0  0  0  0
    7.7796   10.1314   21.5115 N   0  0  0  0  0  0  0  0  0  0  0  0
    9.2768    5.6183   21.4437 C   0  0  0  0  0  0  0  0  0  0  0  0
    8.6315    7.7322   23.1768 C   0  0  0  0  0  0  0  0  0  0  0  0
   13.0537    9.9821   20.5781 C   0  0  0  0  0  0  0  0  0  0  0  0
   10.3850    4.6575   23.2386 O   0  0  0  0  0  0  0  0  0  0  0  0
    4.2069    6.8450   20.7994 C   0  0  0  0  0  0  0  0  0  0  0  0
    3.0726   10.1043   19.8522 O   0  0  0  0  0  0  0  0  0  0  0  0
    5.5057    7.1196   21.1155 C   0  0  0  0  0  0  0  0  0  0  0  0
    7.0367   11.0229   21.9948 O   0  0  0  0  0  0  0  0  0  0  0  0
  1  8  4  0
  1 12  4  0
  2  9  1  0
  2 11  4  0
  2 25  4  0
  3 12  4  0
  3 14  1  0
  3 23  4  0
  4 13  4  0
  4 21  4  0
  4 24  1  0
  5  8  4  0
  5 23  4  0
  6 18  2  0
  7 15  4  0
  7 16  1  0
  7 27  4  0
  8 18  1  0
 10 18  1  0
 10 20  1  0
 11 15  4  0
 11 26  1  0
 13 22  4  0
 16 19  1  0
 16 20  2  0
 17 19  4  0
 17 21  4  0
 19 22  4  0
 20 28  1  0
 25 27  4  0
M  END
$$$$

 Created by Python create_sdf_string function

 28 30  0  0  0  0  0  0  0  0999 V2000
   11.4592   11.2893   18.7941 C   0  0  0  0  0  0  0  0  0  0  0  0
    3.4202    7.9009   20.3866 C   0  0  0  0  0  0  0  0  0  0  0  0
   13.5280   10.3522   19.3586 C   0  0  0  0  0  0  0  0  0  0  0  0
    9.6923    5.6468   22.7891 C   0  0  0  0  0  0  0  0  0  0  0  0
   11.7756   10.2554   20.8841 N   0  0  0  0  0  0  0  0  0  0  0  0
    8.9876   11.9370   19.8757 O   0  0  0  0  0  0  0  0  0  0  0  0
    6.0167    8.4478   21.1089 C   0  0  0  0  0  0  0  0  0  0  0  0
   11.0002   10.8890   20.0262 C   0  0  0  0  0  0  0  0  0  0  0  0
    2.1721    7.7393   20.0315 O   0  0  0  0  0  0  0  0  0  0  0  0
    9.1107   10.3880   21.3769 N   0  0  0  0  0  0  0  0  0  0  0  0
    3.9102    9.2008   20.3124 C   0  0  0  0  0  0  0  0  0  0  0  0
   12.7292   10.9960   18.4597 C   0  0  0  0  0  0  0  0  0  0  0  0
    9.3798    6.6793   23.6625 C   0  0  0  0  0  0  0  0  0  0  0  0
   14.7425   10.0739   19.0802 O   0  0  0  0  0  0  0  0  0  0  0  0
    5.1894    9.4673   20.7118 C   0  0  0  0  0  0  0  0  0  0  0  0
    7.3773    8.8224   21.4870 C   0  0  0  0  0  0  0  0  0  0  0  0
    8.4391    6.6439   21.0235 C   0  0  0  0  0  0  0  0  0  0  0  0
    9.6494   11.1353   20.4167 C   0  0  0  0  0  0  0  0  0  0  0  0
    8.1431    7.6829   21.9046 C   0  0  0  0  0  0  0  0  0  0  0  0
    7.7796   10.1314   21.5115 N   0  0  0  0  0  0  0  0  0  0  0  0
    9.2768    5.6183   21.4437 C   0  0  0  0  0  0  0  0  0  0  0  0
    8.6315    7.7322   23.1768 C   0  0  0  0  0  0  0  0  0  0  0  0
   13.0537    9.9821   20.5781 C   0  0  0  0  0  0  0  0  0  0  0  0
   10.3850    4.6575   23.2386 O   0  0  0  0  0  0  0  0  0  0  0  0
    4.2069    6.8450   20.7994 C   0  0  0  0  0  0  0  0  0  0  0  0
    3.0726   10.1043   19.8522 O   0  0  0  0  0  0  0  0  0  0  0  0
    5.5057    7.1196   21.1155 C   0  0  0  0  0  0  0  0  0  0  0  0
    7.0367   11.0229   21.9948 O   0  0  0  0  0  0  0  0  0  0  0  0
  1  8  4  0
  1 12  4  0
  2  9  1  0
  2 11  4  0
  2 25  4  0
  3 12  4  0
  3 14  1  0
  3 23  4  0
  4 13  4  0
  4 21  4  0
  4 24  1  0
  5  8  4  0
  5 23  4  0
  6 18  2  0
  7 15  4  0
  7 16  1  0
  7 27  4  0
  8 18  1  0
 10 18  1  0
 10 20  1  0
 11 15  4  0
 11 26  1  0
 13 22  4  0
 16 19  1  0
 16 20  2  0
 17 19  4  0
 17 21  4  0
 19 22  4  0
 20 28  1  0
 25 27  4  0
M  END
$$$$

 Created by Python create_sdf_string function

 28 30  0  0  0  0  0  0  0  0999 V2000
   11.4592   11.2893   18.7941 C   0  0  0  0  0  0  0  0  0  0  0  0
    3.4202    7.9009   20.3866 C   0  0  0  0  0  0  0  0  0  0  0  0
   13.5280   10.3522   19.3586 C   0  0  0  0  0  0  0  0  0  0  0  0
    9.6923    5.6468   22.7891 C   0  0  0  0  0  0  0  0  0  0  0  0
   11.7756   10.2554   20.8841 N   0  0  0  0  0  0  0  0  0  0  0  0
    8.9876   11.9370   19.8757 O   0  0  0  0  0  0  0  0  0  0  0  0
    6.0167    8.4478   21.1089 C   0  0  0  0  0  0  0  0  0  0  0  0
   11.0002   10.8890   20.0262 C   0  0  0  0  0  0  0  0  0  0  0  0
    2.1721    7.7393   20.0315 O   0  0  0  0  0  0  0  0  0  0  0  0
    9.1107   10.3880   21.3769 N   0  0  0  0  0  0  0  0  0  0  0  0
    3.9102    9.2008   20.3124 C   0  0  0  0  0  0  0  0  0  0  0  0
   12.7292   10.9960   18.4597 C   0  0  0  0  0  0  0  0  0  0  0  0
    9.3798    6.6793   23.6625 C   0  0  0  0  0  0  0  0  0  0  0  0
   14.7425   10.0739   19.0802 O   0  0  0  0  0  0  0  0  0  0  0  0
    5.1894    9.4673   20.7118 C   0  0  0  0  0  0  0  0  0  0  0  0
    7.3773    8.8224   21.4870 C   0  0  0  0  0  0  0  0  0  0  0  0
    8.4391    6.6439   21.0235 C   0  0  0  0  0  0  0  0  0  0  0  0
    9.6494   11.1353   20.4167 C   0  0  0  0  0  0  0  0  0  0  0  0
    8.1431    7.6829   21.9046 C   0  0  0  0  0  0  0  0  0  0  0  0
    7.7796   10.1314   21.5115 N   0  0  0  0  0  0  0  0  0  0  0  0
    9.2768    5.6183   21.4437 C   0  0  0  0  0  0  0  0  0  0  0  0
    8.6315    7.7322   23.1768 C   0  0  0  0  0  0  0  0  0  0  0  0
   13.0537    9.9821   20.5781 C   0  0  0  0  0  0  0  0  0  0  0  0
   10.3850    4.6575   23.2386 O   0  0  0  0  0  0  0  0  0  0  0  0
    4.2069    6.8450   20.7994 C   0  0  0  0  0  0  0  0  0  0  0  0
    3.0726   10.1043   19.8522 O   0  0  0  0  0  0  0  0  0  0  0  0
    5.5057    7.1196   21.1155 C   0  0  0  0  0  0  0  0  0  0  0  0
    7.0367   11.0229   21.9948 O   0  0  0  0  0  0  0  0  0  0  0  0
  1  8  4  0
  1 12  4  0
  2  9  1  0
  2 11  4  0
  2 25  4  0
  3 12  4  0
  3 14  1  0
  3 23  4  0
  4 13  4  0
  4 21  4  0
  4 24  1  0
  5  8  4  0
  5 23  4  0
  6 18  2  0
  7 15  4  0
  7 16  1  0
  7 27  4  0
  8 18  1  0
 10 18  1  0
 10 20  1  0
 11 15  4  0
 11 26  1  0
 13 22  4  0
 16 19  1  0
 16 20  2  0
 17 19  4  0
 17 21  4  0
 19 22  4  0
 20 28  1  0
 25 27  4  0
M  END
$$$$

 Created by Python create_sdf_string function

 28 30  0  0  0  0  0  0  0  0999 V2000
   11.4592   11.2893   18.7941 C   0  0  0  0  0  0  0  0  0  0  0  0
    3.4202    7.9009   20.3866 C   0  0  0  0  0  0  0  0  0  0  0  0
   13.5280   10.3522   19.3586 C   0  0  0  0  0  0  0  0  0  0  0  0
    9.6923    5.6468   22.7891 C   0  0  0  0  0  0  0  0  0  0  0  0
   11.7756   10.2554   20.8841 N   0  0  0  0  0  0  0  0  0  0  0  0
    8.9876   11.9370   19.8757 O   0  0  0  0  0  0  0  0  0  0  0  0
    6.0167    8.4478   21.1089 C   0  0  0  0  0  0  0  0  0  0  0  0
   11.0002   10.8890   20.0262 C   0  0  0  0  0  0  0  0  0  0  0  0
    2.1721    7.7393   20.0315 O   0  0  0  0  0  0  0  0  0  0  0  0
    9.1107   10.3880   21.3769 N   0  0  0  0  0  0  0  0  0  0  0  0
    3.9102    9.2008   20.3124 C   0  0  0  0  0  0  0  0  0  0  0  0
   12.7292   10.9960   18.4597 C   0  0  0  0  0  0  0  0  0  0  0  0
    9.3798    6.6793   23.6625 C   0  0  0  0  0  0  0  0  0  0  0  0
   14.7425   10.0739   19.0802 O   0  0  0  0  0  0  0  0  0  0  0  0
    5.1894    9.4673   20.7118 C   0  0  0  0  0  0  0  0  0  0  0  0
    7.3773    8.8224   21.4870 C   0  0  0  0  0  0  0  0  0  0  0  0
    8.4391    6.6439   21.0235 C   0  0  0  0  0  0  0  0  0  0  0  0
    9.6494   11.1353   20.4167 C   0  0  0  0  0  0  0  0  0  0  0  0
    8.1431    7.6829   21.9046 C   0  0  0  0  0  0  0  0  0  0  0  0
    7.7796   10.1314   21.5115 N   0  0  0  0  0  0  0  0  0  0  0  0
    9.2768    5.6183   21.4437 C   0  0  0  0  0  0  0  0  0  0  0  0
    8.6315    7.7322   23.1768 C   0  0  0  0  0  0  0  0  0  0  0  0
   13.0537    9.9821   20.5781 C   0  0  0  0  0  0  0  0  0  0  0  0
   10.3850    4.6575   23.2386 O   0  0  0  0  0  0  0  0  0  0  0  0
    4.2069    6.8450   20.7994 C   0  0  0  0  0  0  0  0  0  0  0  0
    3.0726   10.1043   19.8522 O   0  0  0  0  0  0  0  0  0  0  0  0
    5.5057    7.1196   21.1155 C   0  0  0  0  0  0  0  0  0  0  0  0
    7.0367   11.0229   21.9948 O   0  0  0  0  0  0  0  0  0  0  0  0
  1  8  4  0
  1 12  4  0
  2  9  1  0
  2 11  4  0
  2 25  4  0
  3 12  4  0
  3 14  1  0
  3 23  4  0
  4 13  4  0
  4 21  4  0
  4 24  1  0
  5  8  4  0
  5 23  4  0
  6 18  2  0
  7 15  4  0
  7 16  1  0
  7 27  4  0
  8 18  1  0
 10 18  1  0
 10 20  1  0
 11 15  4  0
 11 26  1  0
 13 22  4  0
 16 19  1  0
 16 20  2  0
 17 19  4  0
 17 21  4  0
 19 22  4  0
 20 28  1  0
 25 27  4  0
M  END
$$$$

 Created by Python create_sdf_string function

 28 30  0  0  0  0  0  0  0  0999 V2000
   11.4592   11.2893   18.7941 C   0  0  0  0  0  0  0  0  0  0  0  0
    3.4202    7.9009   20.3866 C   0  0  0  0  0  0  0  0  0  0  0  0
   13.5280   10.3522   19.3586 C   0  0  0  0  0  0  0  0  0  0  0  0
    9.6923    5.6468   22.7891 C   0  0  0  0  0  0  0  0  0  0  0  0
   11.7756   10.2554   20.8841 N   0  0  0  0  0  0  0  0  0  0  0  0
    8.9876   11.9370   19.8757 O   0  0  0  0  0  0  0  0  0  0  0  0
    6.0167    8.4478   21.1089 C   0  0  0  0  0  0  0  0  0  0  0  0
   11.0002   10.8890   20.0262 C   0  0  0  0  0  0  0  0  0  0  0  0
    2.1721    7.7393   20.0315 O   0  0  0  0  0  0  0  0  0  0  0  0
    9.1107   10.3880   21.3769 N   0  0  0  0  0  0  0  0  0  0  0  0
    3.9102    9.2008   20.3124 C   0  0  0  0  0  0  0  0  0  0  0  0
   12.7292   10.9960   18.4597 C   0  0  0  0  0  0  0  0  0  0  0  0
    9.3798    6.6793   23.6625 C   0  0  0  0  0  0  0  0  0  0  0  0
   14.7425   10.0739   19.0802 O   0  0  0  0  0  0  0  0  0  0  0  0
    5.1894    9.4673   20.7118 C   0  0  0  0  0  0  0  0  0  0  0  0
    7.3773    8.8224   21.4870 C   0  0  0  0  0  0  0  0  0  0  0  0
    8.4391    6.6439   21.0235 C   0  0  0  0  0  0  0  0  0  0  0  0
    9.6494   11.1353   20.4167 C   0  0  0  0  0  0  0  0  0  0  0  0
    8.1431    7.6829   21.9046 C   0  0  0  0  0  0  0  0  0  0  0  0
    7.7796   10.1314   21.5115 N   0  0  0  0  0  0  0  0  0  0  0  0
    9.2768    5.6183   21.4437 C   0  0  0  0  0  0  0  0  0  0  0  0
    8.6315    7.7322   23.1768 C   0  0  0  0  0  0  0  0  0  0  0  0
   13.0537    9.9821   20.5781 C   0  0  0  0  0  0  0  0  0  0  0  0
   10.3850    4.6575   23.2386 O   0  0  0  0  0  0  0  0  0  0  0  0
    4.2069    6.8450   20.7994 C   0  0  0  0  0  0  0  0  0  0  0  0
    3.0726   10.1043   19.8522 O   0  0  0  0  0  0  0  0  0  0  0  0
    5.5057    7.1196   21.1155 C   0  0  0  0  0  0  0  0  0  0  0  0
    7.0367   11.0229   21.9948 O   0  0  0  0  0  0  0  0  0  0  0  0
  1  8  4  0
  1 12  4  0
  2  9  1  0
  2 11  4  0
  2 25  4  0
  3 12  4  0
  3 14  1  0
  3 23  4  0
  4 13  4  0
  4 21  4  0
  4 24  1  0
  5  8  4  0
  5 23  4  0
  6 18  2  0
  7 15  4  0
  7 16  1  0
  7 27  4  0
  8 18  1  0
 10 18  1  0
 10 20  1  0
 11 15  4  0
 11 26  1  0
 13 22  4  0
 16 19  1  0
 16 20  2  0
 17 19  4  0
 17 21  4  0
 19 22  4  0
 20 28  1  0
 25 27  4  0
M  END
$$$$

 Created by Python create_sdf_string function

 28 30  0  0  0  0  0  0  0  0999 V2000
   11.4592   11.2893   18.7941 C   0  0  0  0  0  0  0  0  0  0  0  0
    3.4202    7.9009   20.3866 C   0  0  0  0  0  0  0  0  0  0  0  0
   13.5280   10.3522   19.3586 C   0  0  0  0  0  0  0  0  0  0  0  0
    9.6923    5.6468   22.7891 C   0  0  0  0  0  0  0  0  0  0  0  0
   11.7756   10.2554   20.8841 N   0  0  0  0  0  0  0  0  0  0  0  0
    8.9876   11.9370   19.8757 O   0  0  0  0  0  0  0  0  0  0  0  0
    6.0167    8.4478   21.1089 C   0  0  0  0  0  0  0  0  0  0  0  0
   11.0002   10.8890   20.0262 C   0  0  0  0  0  0  0  0  0  0  0  0
    2.1721    7.7393   20.0315 O   0  0  0  0  0  0  0  0  0  0  0  0
    9.1107   10.3880   21.3769 N   0  0  0  0  0  0  0  0  0  0  0  0
    3.9102    9.2008   20.3124 C   0  0  0  0  0  0  0  0  0  0  0  0
   12.7292   10.9960   18.4597 C   0  0  0  0  0  0  0  0  0  0  0  0
    9.3798    6.6793   23.6625 C   0  0  0  0  0  0  0  0  0  0  0  0
   14.7425   10.0739   19.0802 O   0  0  0  0  0  0  0  0  0  0  0  0
    5.1894    9.4673   20.7118 C   0  0  0  0  0  0  0  0  0  0  0  0
    7.3773    8.8224   21.4870 C   0  0  0  0  0  0  0  0  0  0  0  0
    8.4391    6.6439   21.0235 C   0  0  0  0  0  0  0  0  0  0  0  0
    9.6494   11.1353   20.4167 C   0  0  0  0  0  0  0  0  0  0  0  0
    8.1431    7.6829   21.9046 C   0  0  0  0  0  0  0  0  0  0  0  0
    7.7796   10.1314   21.5115 N   0  0  0  0  0  0  0  0  0  0  0  0
    9.2768    5.6183   21.4437 C   0  0  0  0  0  0  0  0  0  0  0  0
    8.6315    7.7322   23.1768 C   0  0  0  0  0  0  0  0  0  0  0  0
   13.0537    9.9821   20.5781 C   0  0  0  0  0  0  0  0  0  0  0  0
   10.3850    4.6575   23.2386 O   0  0  0  0  0  0  0  0  0  0  0  0
    4.2069    6.8450   20.7994 C   0  0  0  0  0  0  0  0  0  0  0  0
    3.0726   10.1043   19.8522 O   0  0  0  0  0  0  0  0  0  0  0  0
    5.5057    7.1196   21.1155 C   0  0  0  0  0  0  0  0  0  0  0  0
    7.0367   11.0229   21.9948 O   0  0  0  0  0  0  0  0  0  0  0  0
  1  8  4  0
  1 12  4  0
  2  9  1  0
  2 11  4  0
  2 25  4  0
  3 12  4  0
  3 14  1  0
  3 23  4  0
  4 13  4  0
  4 21  4  0
  4 24  1  0
  5  8  4  0
  5 23  4  0
  6 18  2  0
  7 15  4  0
  7 16  1  0
  7 27  4  0
  8 18  1  0
 10 18  1  0
 10 20  1  0
 11 15  4  0
 11 26  1  0
 13 22  4  0
 16 19  1  0
 16 20  2  0
 17 19  4  0
 17 21  4  0
 19 22  4  0
 20 28  1  0
 25 27  4  0
M  END
$$$$

 Created by Python create_sdf_string function

 28 30  0  0  0  0  0  0  0  0999 V2000
   11.4592   11.2893   18.7941 C   0  0  0  0  0  0  0  0  0  0  0  0
    3.4202    7.9009   20.3866 C   0  0  0  0  0  0  0  0  0  0  0  0
   13.5280   10.3522   19.3586 C   0  0  0  0  0  0  0  0  0  0  0  0
    9.6923    5.6468   22.7891 C   0  0  0  0  0  0  0  0  0  0  0  0
   11.7756   10.2554   20.8841 N   0  0  0  0  0  0  0  0  0  0  0  0
    8.9876   11.9370   19.8757 O   0  0  0  0  0  0  0  0  0  0  0  0
    6.0167    8.4478   21.1089 C   0  0  0  0  0  0  0  0  0  0  0  0
   11.0002   10.8890   20.0262 C   0  0  0  0  0  0  0  0  0  0  0  0
    2.1721    7.7393   20.0315 O   0  0  0  0  0  0  0  0  0  0  0  0
    9.1107   10.3880   21.3769 N   0  0  0  0  0  0  0  0  0  0  0  0
    3.9102    9.2008   20.3124 C   0  0  0  0  0  0  0  0  0  0  0  0
   12.7292   10.9960   18.4597 C   0  0  0  0  0  0  0  0  0  0  0  0
    9.3798    6.6793   23.6625 C   0  0  0  0  0  0  0  0  0  0  0  0
   14.7425   10.0739   19.0802 O   0  0  0  0  0  0  0  0  0  0  0  0
    5.1894    9.4673   20.7118 C   0  0  0  0  0  0  0  0  0  0  0  0
    7.3773    8.8224   21.4870 C   0  0  0  0  0  0  0  0  0  0  0  0
    8.4391    6.6439   21.0235 C   0  0  0  0  0  0  0  0  0  0  0  0
    9.6494   11.1353   20.4167 C   0  0  0  0  0  0  0  0  0  0  0  0
    8.1431    7.6829   21.9046 C   0  0  0  0  0  0  0  0  0  0  0  0
    7.7796   10.1314   21.5115 N   0  0  0  0  0  0  0  0  0  0  0  0
    9.2768    5.6183   21.4437 C   0  0  0  0  0  0  0  0  0  0  0  0
    8.6315    7.7322   23.1768 C   0  0  0  0  0  0  0  0  0  0  0  0
   13.0537    9.9821   20.5781 C   0  0  0  0  0  0  0  0  0  0  0  0
   10.3850    4.6575   23.2386 O   0  0  0  0  0  0  0  0  0  0  0  0
    4.2069    6.8450   20.7994 C   0  0  0  0  0  0  0  0  0  0  0  0
    3.0726   10.1043   19.8522 O   0  0  0  0  0  0  0  0  0  0  0  0
    5.5057    7.1196   21.1155 C   0  0  0  0  0  0  0  0  0  0  0  0
    7.0367   11.0229   21.9948 O   0  0  0  0  0  0  0  0  0  0  0  0
  1  8  4  0
  1 12  4  0
  2  9  1  0
  2 11  4  0
  2 25  4  0
  3 12  4  0
  3 14  1  0
  3 23  4  0
  4 13  4  0
  4 21  4  0
  4 24  1  0
  5  8  4  0
  5 23  4  0
  6 18  2  0
  7 15  4  0
  7 16  1  0
  7 27  4  0
  8 18  1  0
 10 18  1  0
 10 20  1  0
 11 15  4  0
 11 26  1  0
 13 22  4  0
 16 19  1  0
 16 20  2  0
 17 19  4  0
 17 21  4  0
 19 22  4  0
 20 28  1  0
 25 27  4  0
M  END
$$$$

 Created by Python create_sdf_string function

 28 30  0  0  0  0  0  0  0  0999 V2000
   11.4592   11.2893   18.7941 C   0  0  0  0  0  0  0  0  0  0  0  0
    3.4202    7.9009   20.3866 C   0  0  0  0  0  0  0  0  0  0  0  0
   13.5280   10.3522   19.3586 C   0  0  0  0  0  0  0  0  0  0  0  0
    9.6923    5.6468   22.7891 C   0  0  0  0  0  0  0  0  0  0  0  0
   11.7756   10.2554   20.8841 N   0  0  0  0  0  0  0  0  0  0  0  0
    8.9876   11.9370   19.8757 O   0  0  0  0  0  0  0  0  0  0  0  0
    6.0167    8.4478   21.1089 C   0  0  0  0  0  0  0  0  0  0  0  0
   11.0002   10.8890   20.0262 C   0  0  0  0  0  0  0  0  0  0  0  0
    2.1721    7.7393   20.0315 O   0  0  0  0  0  0  0  0  0  0  0  0
    9.1107   10.3880   21.3769 N   0  0  0  0  0  0  0  0  0  0  0  0
    3.9102    9.2008   20.3124 C   0  0  0  0  0  0  0  0  0  0  0  0
   12.7292   10.9960   18.4597 C   0  0  0  0  0  0  0  0  0  0  0  0
    9.3798    6.6793   23.6625 C   0  0  0  0  0  0  0  0  0  0  0  0
   14.7425   10.0739   19.0802 O   0  0  0  0  0  0  0  0  0  0  0  0
    5.1894    9.4673   20.7118 C   0  0  0  0  0  0  0  0  0  0  0  0
    7.3773    8.8224   21.4870 C   0  0  0  0  0  0  0  0  0  0  0  0
    8.4391    6.6439   21.0235 C   0  0  0  0  0  0  0  0  0  0  0  0
    9.6494   11.1353   20.4167 C   0  0  0  0  0  0  0  0  0  0  0  0
    8.1431    7.6829   21.9046 C   0  0  0  0  0  0  0  0  0  0  0  0
    7.7796   10.1314   21.5115 N   0  0  0  0  0  0  0  0  0  0  0  0
    9.2768    5.6183   21.4437 C   0  0  0  0  0  0  0  0  0  0  0  0
    8.6315    7.7322   23.1768 C   0  0  0  0  0  0  0  0  0  0  0  0
   13.0537    9.9821   20.5781 C   0  0  0  0  0  0  0  0  0  0  0  0
   10.3850    4.6575   23.2386 O   0  0  0  0  0  0  0  0  0  0  0  0
    4.2069    6.8450   20.7994 C   0  0  0  0  0  0  0  0  0  0  0  0
    3.0726   10.1043   19.8522 O   0  0  0  0  0  0  0  0  0  0  0  0
    5.5057    7.1196   21.1155 C   0  0  0  0  0  0  0  0  0  0  0  0
    7.0367   11.0229   21.9948 O   0  0  0  0  0  0  0  0  0  0  0  0
  1  8  4  0
  1 12  4  0
  2  9  1  0
  2 11  4  0
  2 25  4  0
  3 12  4  0
  3 14  1  0
  3 23  4  0
  4 13  4  0
  4 21  4  0
  4 24  1  0
  5  8  4  0
  5 23  4  0
  6 18  2  0
  7 15  4  0
  7 16  1  0
  7 27  4  0
  8 18  1  0
 10 18  1  0
 10 20  1  0
 11 15  4  0
 11 26  1  0
 13 22  4  0
 16 19  1  0
 16 20  2  0
 17 19  4  0
 17 21  4  0
 19 22  4  0
 20 28  1  0
 25 27  4  0
M  END
$$$$

 Created by Python create_sdf_string function

 28 30  0  0  0  0  0  0  0  0999 V2000
   11.4592   11.2893   18.7941 C   0  0  0  0  0  0  0  0  0  0  0  0
    3.4202    7.9009   20.3866 C   0  0  0  0  0  0  0  0  0  0  0  0
   13.5280   10.3522   19.3586 C   0  0  0  0  0  0  0  0  0  0  0  0
    9.6923    5.6468   22.7891 C   0  0  0  0  0  0  0  0  0  0  0  0
   11.7756   10.2554   20.8841 N   0  0  0  0  0  0  0  0  0  0  0  0
    8.9876   11.9370   19.8757 O   0  0  0  0  0  0  0  0  0  0  0  0
    6.0167    8.4478   21.1089 C   0  0  0  0  0  0  0  0  0  0  0  0
   11.0002   10.8890   20.0262 C   0  0  0  0  0  0  0  0  0  0  0  0
    2.1721    7.7393   20.0315 O   0  0  0  0  0  0  0  0  0  0  0  0
    9.1107   10.3880   21.3769 N   0  0  0  0  0  0  0  0  0  0  0  0
    3.9102    9.2008   20.3124 C   0  0  0  0  0  0  0  0  0  0  0  0
   12.7292   10.9960   18.4597 C   0  0  0  0  0  0  0  0  0  0  0  0
    9.3798    6.6793   23.6625 C   0  0  0  0  0  0  0  0  0  0  0  0
   14.7425   10.0739   19.0802 O   0  0  0  0  0  0  0  0  0  0  0  0
    5.1894    9.4673   20.7118 C   0  0  0  0  0  0  0  0  0  0  0  0
    7.3773    8.8224   21.4870 C   0  0  0  0  0  0  0  0  0  0  0  0
    8.4391    6.6439   21.0235 C   0  0  0  0  0  0  0  0  0  0  0  0
    9.6494   11.1353   20.4167 C   0  0  0  0  0  0  0  0  0  0  0  0
    8.1431    7.6829   21.9046 C   0  0  0  0  0  0  0  0  0  0  0  0
    7.7796   10.1314   21.5115 N   0  0  0  0  0  0  0  0  0  0  0  0
    9.2768    5.6183   21.4437 C   0  0  0  0  0  0  0  0  0  0  0  0
    8.6315    7.7322   23.1768 C   0  0  0  0  0  0  0  0  0  0  0  0
   13.0537    9.9821   20.5781 C   0  0  0  0  0  0  0  0  0  0  0  0
   10.3850    4.6575   23.2386 O   0  0  0  0  0  0  0  0  0  0  0  0
    4.2069    6.8450   20.7994 C   0  0  0  0  0  0  0  0  0  0  0  0
    3.0726   10.1043   19.8522 O   0  0  0  0  0  0  0  0  0  0  0  0
    5.5057    7.1196   21.1155 C   0  0  0  0  0  0  0  0  0  0  0  0
    7.0367   11.0229   21.9948 O   0  0  0  0  0  0  0  0  0  0  0  0
  1  8  4  0
  1 12  4  0
  2  9  1  0
  2 11  4  0
  2 25  4  0
  3 12  4  0
  3 14  1  0
  3 23  4  0
  4 13  4  0
  4 21  4  0
  4 24  1  0
  5  8  4  0
  5 23  4  0
  6 18  2  0
  7 15  4  0
  7 16  1  0
  7 27  4  0
  8 18  1  0
 10 18  1  0
 10 20  1  0
 11 15  4  0
 11 26  1  0
 13 22  4  0
 16 19  1  0
 16 20  2  0
 17 19  4  0
 17 21  4  0
 19 22  4  0
 20 28  1  0
 25 27  4  0
M  END
$$$$

 Created by Python create_sdf_string function

 28 30  0  0  0  0  0  0  0  0999 V2000
   11.4592   11.2893   18.7941 C   0  0  0  0  0  0  0  0  0  0  0  0
    3.4202    7.9009   20.3866 C   0  0  0  0  0  0  0  0  0  0  0  0
   13.5280   10.3522   19.3586 C   0  0  0  0  0  0  0  0  0  0  0  0
    9.6923    5.6468   22.7891 C   0  0  0  0  0  0  0  0  0  0  0  0
   11.7756   10.2554   20.8841 N   0  0  0  0  0  0  0  0  0  0  0  0
    8.9876   11.9370   19.8757 O   0  0  0  0  0  0  0  0  0  0  0  0
    6.0167    8.4478   21.1089 C   0  0  0  0  0  0  0  0  0  0  0  0
   11.0002   10.8890   20.0262 C   0  0  0  0  0  0  0  0  0  0  0  0
    2.1721    7.7393   20.0315 O   0  0  0  0  0  0  0  0  0  0  0  0
    9.1107   10.3880   21.3769 N   0  0  0  0  0  0  0  0  0  0  0  0
    3.9102    9.2008   20.3124 C   0  0  0  0  0  0  0  0  0  0  0  0
   12.7292   10.9960   18.4597 C   0  0  0  0  0  0  0  0  0  0  0  0
    9.3798    6.6793   23.6625 C   0  0  0  0  0  0  0  0  0  0  0  0
   14.7425   10.0739   19.0802 O   0  0  0  0  0  0  0  0  0  0  0  0
    5.1894    9.4673   20.7118 C   0  0  0  0  0  0  0  0  0  0  0  0
    7.3773    8.8224   21.4870 C   0  0  0  0  0  0  0  0  0  0  0  0
    8.4391    6.6439   21.0235 C   0  0  0  0  0  0  0  0  0  0  0  0
    9.6494   11.1353   20.4167 C   0  0  0  0  0  0  0  0  0  0  0  0
    8.1431    7.6829   21.9046 C   0  0  0  0  0  0  0  0  0  0  0  0
    7.7796   10.1314   21.5115 N   0  0  0  0  0  0  0  0  0  0  0  0
    9.2768    5.6183   21.4437 C   0  0  0  0  0  0  0  0  0  0  0  0
    8.6315    7.7322   23.1768 C   0  0  0  0  0  0  0  0  0  0  0  0
   13.0537    9.9821   20.5781 C   0  0  0  0  0  0  0  0  0  0  0  0
   10.3850    4.6575   23.2386 O   0  0  0  0  0  0  0  0  0  0  0  0
    4.2069    6.8450   20.7994 C   0  0  0  0  0  0  0  0  0  0  0  0
    3.0726   10.1043   19.8522 O   0  0  0  0  0  0  0  0  0  0  0  0
    5.5057    7.1196   21.1155 C   0  0  0  0  0  0  0  0  0  0  0  0
    7.0367   11.0229   21.9948 O   0  0  0  0  0  0  0  0  0  0  0  0
  1  8  4  0
  1 12  4  0
  2  9  1  0
  2 11  4  0
  2 25  4  0
  3 12  4  0
  3 14  1  0
  3 23  4  0
  4 13  4  0
  4 21  4  0
  4 24  1  0
  5  8  4  0
  5 23  4  0
  6 18  2  0
  7 15  4  0
  7 16  1  0
  7 27  4  0
  8 18  1  0
 10 18  1  0
 10 20  1  0
 11 15  4  0
 11 26  1  0
 13 22  4  0
 16 19  1  0
 16 20  2  0
 17 19  4  0
 17 21  4  0
 19 22  4  0
 20 28  1  0
 25 27  4  0
M  END
$$$$

 Created by Python create_sdf_string function

 28 30  0  0  0  0  0  0  0  0999 V2000
   11.4592   11.2893   18.7941 C   0  0  0  0  0  0  0  0  0  0  0  0
    3.4202    7.9009   20.3866 C   0  0  0  0  0  0  0  0  0  0  0  0
   13.5280   10.3522   19.3586 C   0  0  0  0  0  0  0  0  0  0  0  0
    9.6923    5.6468   22.7891 C   0  0  0  0  0  0  0  0  0  0  0  0
   11.7756   10.2554   20.8841 N   0  0  0  0  0  0  0  0  0  0  0  0
    8.9876   11.9370   19.8757 O   0  0  0  0  0  0  0  0  0  0  0  0
    6.0167    8.4478   21.1089 C   0  0  0  0  0  0  0  0  0  0  0  0
   11.0002   10.8890   20.0262 C   0  0  0  0  0  0  0  0  0  0  0  0
    2.1721    7.7393   20.0315 O   0  0  0  0  0  0  0  0  0  0  0  0
    9.1107   10.3880   21.3769 N   0  0  0  0  0  0  0  0  0  0  0  0
    3.9102    9.2008   20.3124 C   0  0  0  0  0  0  0  0  0  0  0  0
   12.7292   10.9960   18.4597 C   0  0  0  0  0  0  0  0  0  0  0  0
    9.3798    6.6793   23.6625 C   0  0  0  0  0  0  0  0  0  0  0  0
   14.7425   10.0739   19.0802 O   0  0  0  0  0  0  0  0  0  0  0  0
    5.1894    9.4673   20.7118 C   0  0  0  0  0  0  0  0  0  0  0  0
    7.3773    8.8224   21.4870 C   0  0  0  0  0  0  0  0  0  0  0  0
    8.4391    6.6439   21.0235 C   0  0  0  0  0  0  0  0  0  0  0  0
    9.6494   11.1353   20.4167 C   0  0  0  0  0  0  0  0  0  0  0  0
    8.1431    7.6829   21.9046 C   0  0  0  0  0  0  0  0  0  0  0  0
    7.7796   10.1314   21.5115 N   0  0  0  0  0  0  0  0  0  0  0  0
    9.2768    5.6183   21.4437 C   0  0  0  0  0  0  0  0  0  0  0  0
    8.6315    7.7322   23.1768 C   0  0  0  0  0  0  0  0  0  0  0  0
   13.0537    9.9821   20.5781 C   0  0  0  0  0  0  0  0  0  0  0  0
   10.3850    4.6575   23.2386 O   0  0  0  0  0  0  0  0  0  0  0  0
    4.2069    6.8450   20.7994 C   0  0  0  0  0  0  0  0  0  0  0  0
    3.0726   10.1043   19.8522 O   0  0  0  0  0  0  0  0  0  0  0  0
    5.5057    7.1196   21.1155 C   0  0  0  0  0  0  0  0  0  0  0  0
    7.0367   11.0229   21.9948 O   0  0  0  0  0  0  0  0  0  0  0  0
  1  8  4  0
  1 12  4  0
  2  9  1  0
  2 11  4  0
  2 25  4  0
  3 12  4  0
  3 14  1  0
  3 23  4  0
  4 13  4  0
  4 21  4  0
  4 24  1  0
  5  8  4  0
  5 23  4  0
  6 18  2  0
  7 15  4  0
  7 16  1  0
  7 27  4  0
  8 18  1  0
 10 18  1  0
 10 20  1  0
 11 15  4  0
 11 26  1  0
 13 22  4  0
 16 19  1  0
 16 20  2  0
 17 19  4  0
 17 21  4  0
 19 22  4  0
 20 28  1  0
 25 27  4  0
M  END
$$$$

 Created by Python create_sdf_string function

 28 30  0  0  0  0  0  0  0  0999 V2000
   11.4592   11.2893   18.7941 C   0  0  0  0  0  0  0  0  0  0  0  0
    3.4202    7.9009   20.3866 C   0  0  0  0  0  0  0  0  0  0  0  0
   13.5280   10.3522   19.3586 C   0  0  0  0  0  0  0  0  0  0  0  0
    9.6923    5.6468   22.7891 C   0  0  0  0  0  0  0  0  0  0  0  0
   11.7756   10.2554   20.8841 N   0  0  0  0  0  0  0  0  0  0  0  0
    8.9876   11.9370   19.8757 O   0  0  0  0  0  0  0  0  0  0  0  0
    6.0167    8.4478   21.1089 C   0  0  0  0  0  0  0  0  0  0  0  0
   11.0002   10.8890   20.0262 C   0  0  0  0  0  0  0  0  0  0  0  0
    2.1721    7.7393   20.0315 O   0  0  0  0  0  0  0  0  0  0  0  0
    9.1107   10.3880   21.3769 N   0  0  0  0  0  0  0  0  0  0  0  0
    3.9102    9.2008   20.3124 C   0  0  0  0  0  0  0  0  0  0  0  0
   12.7292   10.9960   18.4597 C   0  0  0  0  0  0  0  0  0  0  0  0
    9.3798    6.6793   23.6625 C   0  0  0  0  0  0  0  0  0  0  0  0
   14.7425   10.0739   19.0802 O   0  0  0  0  0  0  0  0  0  0  0  0
    5.1894    9.4673   20.7118 C   0  0  0  0  0  0  0  0  0  0  0  0
    7.3773    8.8224   21.4870 C   0  0  0  0  0  0  0  0  0  0  0  0
    8.4391    6.6439   21.0235 C   0  0  0  0  0  0  0  0  0  0  0  0
    9.6494   11.1353   20.4167 C   0  0  0  0  0  0  0  0  0  0  0  0
    8.1431    7.6829   21.9046 C   0  0  0  0  0  0  0  0  0  0  0  0
    7.7796   10.1314   21.5115 N   0  0  0  0  0  0  0  0  0  0  0  0
    9.2768    5.6183   21.4437 C   0  0  0  0  0  0  0  0  0  0  0  0
    8.6315    7.7322   23.1768 C   0  0  0  0  0  0  0  0  0  0  0  0
   13.0537    9.9821   20.5781 C   0  0  0  0  0  0  0  0  0  0  0  0
   10.3850    4.6575   23.2386 O   0  0  0  0  0  0  0  0  0  0  0  0
    4.2069    6.8450   20.7994 C   0  0  0  0  0  0  0  0  0  0  0  0
    3.0726   10.1043   19.8522 O   0  0  0  0  0  0  0  0  0  0  0  0
    5.5057    7.1196   21.1155 C   0  0  0  0  0  0  0  0  0  0  0  0
    7.0367   11.0229   21.9948 O   0  0  0  0  0  0  0  0  0  0  0  0
  1  8  4  0
  1 12  4  0
  2  9  1  0
  2 11  4  0
  2 25  4  0
  3 12  4  0
  3 14  1  0
  3 23  4  0
  4 13  4  0
  4 21  4  0
  4 24  1  0
  5  8  4  0
  5 23  4  0
  6 18  2  0
  7 15  4  0
  7 16  1  0
  7 27  4  0
  8 18  1  0
 10 18  1  0
 10 20  1  0
 11 15  4  0
 11 26  1  0
 13 22  4  0
 16 19  1  0
 16 20  2  0
 17 19  4  0
 17 21  4  0
 19 22  4  0
 20 28  1  0
 25 27  4  0
M  END
$$$$

 Created by Python create_sdf_string function

 28 30  0  0  0  0  0  0  0  0999 V2000
   11.4592   11.2893   18.7941 C   0  0  0  0  0  0  0  0  0  0  0  0
    3.4202    7.9009   20.3866 C   0  0  0  0  0  0  0  0  0  0  0  0
   13.5280   10.3522   19.3586 C   0  0  0  0  0  0  0  0  0  0  0  0
    9.6923    5.6468   22.7891 C   0  0  0  0  0  0  0  0  0  0  0  0
   11.7756   10.2554   20.8841 N   0  0  0  0  0  0  0  0  0  0  0  0
    8.9876   11.9370   19.8757 O   0  0  0  0  0  0  0  0  0  0  0  0
    6.0167    8.4478   21.1089 C   0  0  0  0  0  0  0  0  0  0  0  0
   11.0002   10.8890   20.0262 C   0  0  0  0  0  0  0  0  0  0  0  0
    2.1721    7.7393   20.0315 O   0  0  0  0  0  0  0  0  0  0  0  0
    9.1107   10.3880   21.3769 N   0  0  0  0  0  0  0  0  0  0  0  0
    3.9102    9.2008   20.3124 C   0  0  0  0  0  0  0  0  0  0  0  0
   12.7292   10.9960   18.4597 C   0  0  0  0  0  0  0  0  0  0  0  0
    9.3798    6.6793   23.6625 C   0  0  0  0  0  0  0  0  0  0  0  0
   14.7425   10.0739   19.0802 O   0  0  0  0  0  0  0  0  0  0  0  0
    5.1894    9.4673   20.7118 C   0  0  0  0  0  0  0  0  0  0  0  0
    7.3773    8.8224   21.4870 C   0  0  0  0  0  0  0  0  0  0  0  0
    8.4391    6.6439   21.0235 C   0  0  0  0  0  0  0  0  0  0  0  0
    9.6494   11.1353   20.4167 C   0  0  0  0  0  0  0  0  0  0  0  0
    8.1431    7.6829   21.9046 C   0  0  0  0  0  0  0  0  0  0  0  0
    7.7796   10.1314   21.5115 N   0  0  0  0  0  0  0  0  0  0  0  0
    9.2768    5.6183   21.4437 C   0  0  0  0  0  0  0  0  0  0  0  0
    8.6315    7.7322   23.1768 C   0  0  0  0  0  0  0  0  0  0  0  0
   13.0537    9.9821   20.5781 C   0  0  0  0  0  0  0  0  0  0  0  0
   10.3850    4.6575   23.2386 O   0  0  0  0  0  0  0  0  0  0  0  0
    4.2069    6.8450   20.7994 C   0  0  0  0  0  0  0  0  0  0  0  0
    3.0726   10.1043   19.8522 O   0  0  0  0  0  0  0  0  0  0  0  0
    5.5057    7.1196   21.1155 C   0  0  0  0  0  0  0  0  0  0  0  0
    7.0367   11.0229   21.9948 O   0  0  0  0  0  0  0  0  0  0  0  0
  1  8  4  0
  1 12  4  0
  2  9  1  0
  2 11  4  0
  2 25  4  0
  3 12  4  0
  3 14  1  0
  3 23  4  0
  4 13  4  0
  4 21  4  0
  4 24  1  0
  5  8  4  0
  5 23  4  0
  6 18  2  0
  7 15  4  0
  7 16  1  0
  7 27  4  0
  8 18  1  0
 10 18  1  0
 10 20  1  0
 11 15  4  0
 11 26  1  0
 13 22  4  0
 16 19  1  0
 16 20  2  0
 17 19  4  0
 17 21  4  0
 19 22  4  0
 20 28  1  0
 25 27  4  0
M  END
$$$$

 Created by Python create_sdf_string function

 28 30  0  0  0  0  0  0  0  0999 V2000
   11.4592   11.2893   18.7941 C   0  0  0  0  0  0  0  0  0  0  0  0
    3.4202    7.9009   20.3866 C   0  0  0  0  0  0  0  0  0  0  0  0
   13.5280   10.3522   19.3586 C   0  0  0  0  0  0  0  0  0  0  0  0
    9.6923    5.6468   22.7891 C   0  0  0  0  0  0  0  0  0  0  0  0
   11.7756   10.2554   20.8841 N   0  0  0  0  0  0  0  0  0  0  0  0
    8.9876   11.9370   19.8757 O   0  0  0  0  0  0  0  0  0  0  0  0
    6.0167    8.4478   21.1089 C   0  0  0  0  0  0  0  0  0  0  0  0
   11.0002   10.8890   20.0262 C   0  0  0  0  0  0  0  0  0  0  0  0
    2.1721    7.7393   20.0315 O   0  0  0  0  0  0  0  0  0  0  0  0
    9.1107   10.3880   21.3769 N   0  0  0  0  0  0  0  0  0  0  0  0
    3.9102    9.2008   20.3124 C   0  0  0  0  0  0  0  0  0  0  0  0
   12.7292   10.9960   18.4597 C   0  0  0  0  0  0  0  0  0  0  0  0
    9.3798    6.6793   23.6625 C   0  0  0  0  0  0  0  0  0  0  0  0
   14.7425   10.0739   19.0802 O   0  0  0  0  0  0  0  0  0  0  0  0
    5.1894    9.4673   20.7118 C   0  0  0  0  0  0  0  0  0  0  0  0
    7.3773    8.8224   21.4870 C   0  0  0  0  0  0  0  0  0  0  0  0
    8.4391    6.6439   21.0235 C   0  0  0  0  0  0  0  0  0  0  0  0
    9.6494   11.1353   20.4167 C   0  0  0  0  0  0  0  0  0  0  0  0
    8.1431    7.6829   21.9046 C   0  0  0  0  0  0  0  0  0  0  0  0
    7.7796   10.1314   21.5115 N   0  0  0  0  0  0  0  0  0  0  0  0
    9.2768    5.6183   21.4437 C   0  0  0  0  0  0  0  0  0  0  0  0
    8.6315    7.7322   23.1768 C   0  0  0  0  0  0  0  0  0  0  0  0
   13.0537    9.9821   20.5781 C   0  0  0  0  0  0  0  0  0  0  0  0
   10.3850    4.6575   23.2386 O   0  0  0  0  0  0  0  0  0  0  0  0
    4.2069    6.8450   20.7994 C   0  0  0  0  0  0  0  0  0  0  0  0
    3.0726   10.1043   19.8522 O   0  0  0  0  0  0  0  0  0  0  0  0
    5.5057    7.1196   21.1155 C   0  0  0  0  0  0  0  0  0  0  0  0
    7.0367   11.0229   21.9948 O   0  0  0  0  0  0  0  0  0  0  0  0
  1  8  4  0
  1 12  4  0
  2  9  1  0
  2 11  4  0
  2 25  4  0
  3 12  4  0
  3 14  1  0
  3 23  4  0
  4 13  4  0
  4 21  4  0
  4 24  1  0
  5  8  4  0
  5 23  4  0
  6 18  2  0
  7 15  4  0
  7 16  1  0
  7 27  4  0
  8 18  1  0
 10 18  1  0
 10 20  1  0
 11 15  4  0
 11 26  1  0
 13 22  4  0
 16 19  1  0
 16 20  2  0
 17 19  4  0
 17 21  4  0
 19 22  4  0
 20 28  1  0
 25 27  4  0
M  END
$$$$

 Created by Python create_sdf_string function

 28 30  0  0  0  0  0  0  0  0999 V2000
   11.4592   11.2893   18.7941 C   0  0  0  0  0  0  0  0  0  0  0  0
    3.4202    7.9009   20.3866 C   0  0  0  0  0  0  0  0  0  0  0  0
   13.5280   10.3522   19.3586 C   0  0  0  0  0  0  0  0  0  0  0  0
    9.6923    5.6468   22.7891 C   0  0  0  0  0  0  0  0  0  0  0  0
   11.7756   10.2554   20.8841 N   0  0  0  0  0  0  0  0  0  0  0  0
    8.9876   11.9370   19.8757 O   0  0  0  0  0  0  0  0  0  0  0  0
    6.0167    8.4478   21.1089 C   0  0  0  0  0  0  0  0  0  0  0  0
   11.0002   10.8890   20.0262 C   0  0  0  0  0  0  0  0  0  0  0  0
    2.1721    7.7393   20.0315 O   0  0  0  0  0  0  0  0  0  0  0  0
    9.1107   10.3880   21.3769 N   0  0  0  0  0  0  0  0  0  0  0  0
    3.9102    9.2008   20.3124 C   0  0  0  0  0  0  0  0  0  0  0  0
   12.7292   10.9960   18.4597 C   0  0  0  0  0  0  0  0  0  0  0  0
    9.3798    6.6793   23.6625 C   0  0  0  0  0  0  0  0  0  0  0  0
   14.7425   10.0739   19.0802 O   0  0  0  0  0  0  0  0  0  0  0  0
    5.1894    9.4673   20.7118 C   0  0  0  0  0  0  0  0  0  0  0  0
    7.3773    8.8224   21.4870 C   0  0  0  0  0  0  0  0  0  0  0  0
    8.4391    6.6439   21.0235 C   0  0  0  0  0  0  0  0  0  0  0  0
    9.6494   11.1353   20.4167 C   0  0  0  0  0  0  0  0  0  0  0  0
    8.1431    7.6829   21.9046 C   0  0  0  0  0  0  0  0  0  0  0  0
    7.7796   10.1314   21.5115 N   0  0  0  0  0  0  0  0  0  0  0  0
    9.2768    5.6183   21.4437 C   0  0  0  0  0  0  0  0  0  0  0  0
    8.6315    7.7322   23.1768 C   0  0  0  0  0  0  0  0  0  0  0  0
   13.0537    9.9821   20.5781 C   0  0  0  0  0  0  0  0  0  0  0  0
   10.3850    4.6575   23.2386 O   0  0  0  0  0  0  0  0  0  0  0  0
    4.2069    6.8450   20.7994 C   0  0  0  0  0  0  0  0  0  0  0  0
    3.0726   10.1043   19.8522 O   0  0  0  0  0  0  0  0  0  0  0  0
    5.5057    7.1196   21.1155 C   0  0  0  0  0  0  0  0  0  0  0  0
    7.0367   11.0229   21.9948 O   0  0  0  0  0  0  0  0  0  0  0  0
  1  8  4  0
  1 12  4  0
  2  9  1  0
  2 11  4  0
  2 25  4  0
  3 12  4  0
  3 14  1  0
  3 23  4  0
  4 13  4  0
  4 21  4  0
  4 24  1  0
  5  8  4  0
  5 23  4  0
  6 18  2  0
  7 15  4  0
  7 16  1  0
  7 27  4  0
  8 18  1  0
 10 18  1  0
 10 20  1  0
 11 15  4  0
 11 26  1  0
 13 22  4  0
 16 19  1  0
 16 20  2  0
 17 19  4  0
 17 21  4  0
 19 22  4  0
 20 28  1  0
 25 27  4  0
M  END
$$$$

 Created by Python create_sdf_string function

 28 30  0  0  0  0  0  0  0  0999 V2000
   11.4592   11.2893   18.7941 C   0  0  0  0  0  0  0  0  0  0  0  0
    3.4202    7.9009   20.3866 C   0  0  0  0  0  0  0  0  0  0  0  0
   13.5280   10.3522   19.3586 C   0  0  0  0  0  0  0  0  0  0  0  0
    9.6923    5.6468   22.7891 C   0  0  0  0  0  0  0  0  0  0  0  0
   11.7756   10.2554   20.8841 N   0  0  0  0  0  0  0  0  0  0  0  0
    8.9876   11.9370   19.8757 O   0  0  0  0  0  0  0  0  0  0  0  0
    6.0167    8.4478   21.1089 C   0  0  0  0  0  0  0  0  0  0  0  0
   11.0002   10.8890   20.0262 C   0  0  0  0  0  0  0  0  0  0  0  0
    2.1721    7.7393   20.0315 O   0  0  0  0  0  0  0  0  0  0  0  0
    9.1107   10.3880   21.3769 N   0  0  0  0  0  0  0  0  0  0  0  0
    3.9102    9.2008   20.3124 C   0  0  0  0  0  0  0  0  0  0  0  0
   12.7292   10.9960   18.4597 C   0  0  0  0  0  0  0  0  0  0  0  0
    9.3798    6.6793   23.6625 C   0  0  0  0  0  0  0  0  0  0  0  0
   14.7425   10.0739   19.0802 O   0  0  0  0  0  0  0  0  0  0  0  0
    5.1894    9.4673   20.7118 C   0  0  0  0  0  0  0  0  0  0  0  0
    7.3773    8.8224   21.4870 C   0  0  0  0  0  0  0  0  0  0  0  0
    8.4391    6.6439   21.0235 C   0  0  0  0  0  0  0  0  0  0  0  0
    9.6494   11.1353   20.4167 C   0  0  0  0  0  0  0  0  0  0  0  0
    8.1431    7.6829   21.9046 C   0  0  0  0  0  0  0  0  0  0  0  0
    7.7796   10.1314   21.5115 N   0  0  0  0  0  0  0  0  0  0  0  0
    9.2768    5.6183   21.4437 C   0  0  0  0  0  0  0  0  0  0  0  0
    8.6315    7.7322   23.1768 C   0  0  0  0  0  0  0  0  0  0  0  0
   13.0537    9.9821   20.5781 C   0  0  0  0  0  0  0  0  0  0  0  0
   10.3850    4.6575   23.2386 O   0  0  0  0  0  0  0  0  0  0  0  0
    4.2069    6.8450   20.7994 C   0  0  0  0  0  0  0  0  0  0  0  0
    3.0726   10.1043   19.8522 O   0  0  0  0  0  0  0  0  0  0  0  0
    5.5057    7.1196   21.1155 C   0  0  0  0  0  0  0  0  0  0  0  0
    7.0367   11.0229   21.9948 O   0  0  0  0  0  0  0  0  0  0  0  0
  1  8  4  0
  1 12  4  0
  2  9  1  0
  2 11  4  0
  2 25  4  0
  3 12  4  0
  3 14  1  0
  3 23  4  0
  4 13  4  0
  4 21  4  0
  4 24  1  0
  5  8  4  0
  5 23  4  0
  6 18  2  0
  7 15  4  0
  7 16  1  0
  7 27  4  0
  8 18  1  0
 10 18  1  0
 10 20  1  0
 11 15  4  0
 11 26  1  0
 13 22  4  0
 16 19  1  0
 16 20  2  0
 17 19  4  0
 17 21  4  0
 19 22  4  0
 20 28  1  0
 25 27  4  0
M  END
$$$$

 Created by Python create_sdf_string function

 28 30  0  0  0  0  0  0  0  0999 V2000
   11.4592   11.2893   18.7941 C   0  0  0  0  0  0  0  0  0  0  0  0
    3.4202    7.9009   20.3866 C   0  0  0  0  0  0  0  0  0  0  0  0
   13.5280   10.3522   19.3586 C   0  0  0  0  0  0  0  0  0  0  0  0
    9.6923    5.6468   22.7891 C   0  0  0  0  0  0  0  0  0  0  0  0
   11.7756   10.2554   20.8841 N   0  0  0  0  0  0  0  0  0  0  0  0
    8.9876   11.9370   19.8757 O   0  0  0  0  0  0  0  0  0  0  0  0
    6.0167    8.4478   21.1089 C   0  0  0  0  0  0  0  0  0  0  0  0
   11.0002   10.8890   20.0262 C   0  0  0  0  0  0  0  0  0  0  0  0
    2.1721    7.7393   20.0315 O   0  0  0  0  0  0  0  0  0  0  0  0
    9.1107   10.3880   21.3769 N   0  0  0  0  0  0  0  0  0  0  0  0
    3.9102    9.2008   20.3124 C   0  0  0  0  0  0  0  0  0  0  0  0
   12.7292   10.9960   18.4597 C   0  0  0  0  0  0  0  0  0  0  0  0
    9.3798    6.6793   23.6625 C   0  0  0  0  0  0  0  0  0  0  0  0
   14.7425   10.0739   19.0802 O   0  0  0  0  0  0  0  0  0  0  0  0
    5.1894    9.4673   20.7118 C   0  0  0  0  0  0  0  0  0  0  0  0
    7.3773    8.8224   21.4870 C   0  0  0  0  0  0  0  0  0  0  0  0
    8.4391    6.6439   21.0235 C   0  0  0  0  0  0  0  0  0  0  0  0
    9.6494   11.1353   20.4167 C   0  0  0  0  0  0  0  0  0  0  0  0
    8.1431    7.6829   21.9046 C   0  0  0  0  0  0  0  0  0  0  0  0
    7.7796   10.1314   21.5115 N   0  0  0  0  0  0  0  0  0  0  0  0
    9.2768    5.6183   21.4437 C   0  0  0  0  0  0  0  0  0  0  0  0
    8.6315    7.7322   23.1768 C   0  0  0  0  0  0  0  0  0  0  0  0
   13.0537    9.9821   20.5781 C   0  0  0  0  0  0  0  0  0  0  0  0
   10.3850    4.6575   23.2386 O   0  0  0  0  0  0  0  0  0  0  0  0
    4.2069    6.8450   20.7994 C   0  0  0  0  0  0  0  0  0  0  0  0
    3.0726   10.1043   19.8522 O   0  0  0  0  0  0  0  0  0  0  0  0
    5.5057    7.1196   21.1155 C   0  0  0  0  0  0  0  0  0  0  0  0
    7.0367   11.0229   21.9948 O   0  0  0  0  0  0  0  0  0  0  0  0
  1  8  4  0
  1 12  4  0
  2  9  1  0
  2 11  4  0
  2 25  4  0
  3 12  4  0
  3 14  1  0
  3 23  4  0
  4 13  4  0
  4 21  4  0
  4 24  1  0
  5  8  4  0
  5 23  4  0
  6 18  2  0
  7 15  4  0
  7 16  1  0
  7 27  4  0
  8 18  1  0
 10 18  1  0
 10 20  1  0
 11 15  4  0
 11 26  1  0
 13 22  4  0
 16 19  1  0
 16 20  2  0
 17 19  4  0
 17 21  4  0
 19 22  4  0
 20 28  1  0
 25 27  4  0
M  END
$$$$

 Created by Python create_sdf_string function

 28 30  0  0  0  0  0  0  0  0999 V2000
   11.4592   11.2893   18.7941 C   0  0  0  0  0  0  0  0  0  0  0  0
    3.4202    7.9009   20.3866 C   0  0  0  0  0  0  0  0  0  0  0  0
   13.5280   10.3522   19.3586 C   0  0  0  0  0  0  0  0  0  0  0  0
    9.6923    5.6468   22.7891 C   0  0  0  0  0  0  0  0  0  0  0  0
   11.7756   10.2554   20.8841 N   0  0  0  0  0  0  0  0  0  0  0  0
    8.9876   11.9370   19.8757 O   0  0  0  0  0  0  0  0  0  0  0  0
    6.0167    8.4478   21.1089 C   0  0  0  0  0  0  0  0  0  0  0  0
   11.0002   10.8890   20.0262 C   0  0  0  0  0  0  0  0  0  0  0  0
    2.1721    7.7393   20.0315 O   0  0  0  0  0  0  0  0  0  0  0  0
    9.1107   10.3880   21.3769 N   0  0  0  0  0  0  0  0  0  0  0  0
    3.9102    9.2008   20.3124 C   0  0  0  0  0  0  0  0  0  0  0  0
   12.7292   10.9960   18.4597 C   0  0  0  0  0  0  0  0  0  0  0  0
    9.3798    6.6793   23.6625 C   0  0  0  0  0  0  0  0  0  0  0  0
   14.7425   10.0739   19.0802 O   0  0  0  0  0  0  0  0  0  0  0  0
    5.1894    9.4673   20.7118 C   0  0  0  0  0  0  0  0  0  0  0  0
    7.3773    8.8224   21.4870 C   0  0  0  0  0  0  0  0  0  0  0  0
    8.4391    6.6439   21.0235 C   0  0  0  0  0  0  0  0  0  0  0  0
    9.6494   11.1353   20.4167 C   0  0  0  0  0  0  0  0  0  0  0  0
    8.1431    7.6829   21.9046 C   0  0  0  0  0  0  0  0  0  0  0  0
    7.7796   10.1314   21.5115 N   0  0  0  0  0  0  0  0  0  0  0  0
    9.2768    5.6183   21.4437 C   0  0  0  0  0  0  0  0  0  0  0  0
    8.6315    7.7322   23.1768 C   0  0  0  0  0  0  0  0  0  0  0  0
   13.0537    9.9821   20.5781 C   0  0  0  0  0  0  0  0  0  0  0  0
   10.3850    4.6575   23.2386 O   0  0  0  0  0  0  0  0  0  0  0  0
    4.2069    6.8450   20.7994 C   0  0  0  0  0  0  0  0  0  0  0  0
    3.0726   10.1043   19.8522 O   0  0  0  0  0  0  0  0  0  0  0  0
    5.5057    7.1196   21.1155 C   0  0  0  0  0  0  0  0  0  0  0  0
    7.0367   11.0229   21.9948 O   0  0  0  0  0  0  0  0  0  0  0  0
  1  8  4  0
  1 12  4  0
  2  9  1  0
  2 11  4  0
  2 25  4  0
  3 12  4  0
  3 14  1  0
  3 23  4  0
  4 13  4  0
  4 21  4  0
  4 24  1  0
  5  8  4  0
  5 23  4  0
  6 18  2  0
  7 15  4  0
  7 16  1  0
  7 27  4  0
  8 18  1  0
 10 18  1  0
 10 20  1  0
 11 15  4  0
 11 26  1  0
 13 22  4  0
 16 19  1  0
 16 20  2  0
 17 19  4  0
 17 21  4  0
 19 22  4  0
 20 28  1  0
 25 27  4  0
M  END
$$$$

 Created by Python create_sdf_string function

 28 30  0  0  0  0  0  0  0  0999 V2000
   11.4592   11.2893   18.7941 C   0  0  0  0  0  0  0  0  0  0  0  0
    3.4202    7.9009   20.3866 C   0  0  0  0  0  0  0  0  0  0  0  0
   13.5280   10.3522   19.3586 C   0  0  0  0  0  0  0  0  0  0  0  0
    9.6923    5.6468   22.7891 C   0  0  0  0  0  0  0  0  0  0  0  0
   11.7756   10.2554   20.8841 N   0  0  0  0  0  0  0  0  0  0  0  0
    8.9876   11.9370   19.8757 O   0  0  0  0  0  0  0  0  0  0  0  0
    6.0167    8.4478   21.1089 C   0  0  0  0  0  0  0  0  0  0  0  0
   11.0002   10.8890   20.0262 C   0  0  0  0  0  0  0  0  0  0  0  0
    2.1721    7.7393   20.0315 O   0  0  0  0  0  0  0  0  0  0  0  0
    9.1107   10.3880   21.3769 N   0  0  0  0  0  0  0  0  0  0  0  0
    3.9102    9.2008   20.3124 C   0  0  0  0  0  0  0  0  0  0  0  0
   12.7292   10.9960   18.4597 C   0  0  0  0  0  0  0  0  0  0  0  0
    9.3798    6.6793   23.6625 C   0  0  0  0  0  0  0  0  0  0  0  0
   14.7425   10.0739   19.0802 O   0  0  0  0  0  0  0  0  0  0  0  0
    5.1894    9.4673   20.7118 C   0  0  0  0  0  0  0  0  0  0  0  0
    7.3773    8.8224   21.4870 C   0  0  0  0  0  0  0  0  0  0  0  0
    8.4391    6.6439   21.0235 C   0  0  0  0  0  0  0  0  0  0  0  0
    9.6494   11.1353   20.4167 C   0  0  0  0  0  0  0  0  0  0  0  0
    8.1431    7.6829   21.9046 C   0  0  0  0  0  0  0  0  0  0  0  0
    7.7796   10.1314   21.5115 N   0  0  0  0  0  0  0  0  0  0  0  0
    9.2768    5.6183   21.4437 C   0  0  0  0  0  0  0  0  0  0  0  0
    8.6315    7.7322   23.1768 C   0  0  0  0  0  0  0  0  0  0  0  0
   13.0537    9.9821   20.5781 C   0  0  0  0  0  0  0  0  0  0  0  0
   10.3850    4.6575   23.2386 O   0  0  0  0  0  0  0  0  0  0  0  0
    4.2069    6.8450   20.7994 C   0  0  0  0  0  0  0  0  0  0  0  0
    3.0726   10.1043   19.8522 O   0  0  0  0  0  0  0  0  0  0  0  0
    5.5057    7.1196   21.1155 C   0  0  0  0  0  0  0  0  0  0  0  0
    7.0367   11.0229   21.9948 O   0  0  0  0  0  0  0  0  0  0  0  0
  1  8  4  0
  1 12  4  0
  2  9  1  0
  2 11  4  0
  2 25  4  0
  3 12  4  0
  3 14  1  0
  3 23  4  0
  4 13  4  0
  4 21  4  0
  4 24  1  0
  5  8  4  0
  5 23  4  0
  6 18  2  0
  7 15  4  0
  7 16  1  0
  7 27  4  0
  8 18  1  0
 10 18  1  0
 10 20  1  0
 11 15  4  0
 11 26  1  0
 13 22  4  0
 16 19  1  0
 16 20  2  0
 17 19  4  0
 17 21  4  0
 19 22  4  0
 20 28  1  0
 25 27  4  0
M  END
$$$$

 Created by Python create_sdf_string function

 28 30  0  0  0  0  0  0  0  0999 V2000
   11.4592   11.2893   18.7941 C   0  0  0  0  0  0  0  0  0  0  0  0
    3.4202    7.9009   20.3866 C   0  0  0  0  0  0  0  0  0  0  0  0
   13.5280   10.3522   19.3586 C   0  0  0  0  0  0  0  0  0  0  0  0
    9.6923    5.6468   22.7891 C   0  0  0  0  0  0  0  0  0  0  0  0
   11.7756   10.2554   20.8841 N   0  0  0  0  0  0  0  0  0  0  0  0
    8.9876   11.9370   19.8757 O   0  0  0  0  0  0  0  0  0  0  0  0
    6.0167    8.4478   21.1089 C   0  0  0  0  0  0  0  0  0  0  0  0
   11.0002   10.8890   20.0262 C   0  0  0  0  0  0  0  0  0  0  0  0
    2.1721    7.7393   20.0315 O   0  0  0  0  0  0  0  0  0  0  0  0
    9.1107   10.3880   21.3769 N   0  0  0  0  0  0  0  0  0  0  0  0
    3.9102    9.2008   20.3124 C   0  0  0  0  0  0  0  0  0  0  0  0
   12.7292   10.9960   18.4597 C   0  0  0  0  0  0  0  0  0  0  0  0
    9.3798    6.6793   23.6625 C   0  0  0  0  0  0  0  0  0  0  0  0
   14.7425   10.0739   19.0802 O   0  0  0  0  0  0  0  0  0  0  0  0
    5.1894    9.4673   20.7118 C   0  0  0  0  0  0  0  0  0  0  0  0
    7.3773    8.8224   21.4870 C   0  0  0  0  0  0  0  0  0  0  0  0
    8.4391    6.6439   21.0235 C   0  0  0  0  0  0  0  0  0  0  0  0
    9.6494   11.1353   20.4167 C   0  0  0  0  0  0  0  0  0  0  0  0
    8.1431    7.6829   21.9046 C   0  0  0  0  0  0  0  0  0  0  0  0
    7.7796   10.1314   21.5115 N   0  0  0  0  0  0  0  0  0  0  0  0
    9.2768    5.6183   21.4437 C   0  0  0  0  0  0  0  0  0  0  0  0
    8.6315    7.7322   23.1768 C   0  0  0  0  0  0  0  0  0  0  0  0
   13.0537    9.9821   20.5781 C   0  0  0  0  0  0  0  0  0  0  0  0
   10.3850    4.6575   23.2386 O   0  0  0  0  0  0  0  0  0  0  0  0
    4.2069    6.8450   20.7994 C   0  0  0  0  0  0  0  0  0  0  0  0
    3.0726   10.1043   19.8522 O   0  0  0  0  0  0  0  0  0  0  0  0
    5.5057    7.1196   21.1155 C   0  0  0  0  0  0  0  0  0  0  0  0
    7.0367   11.0229   21.9948 O   0  0  0  0  0  0  0  0  0  0  0  0
  1  8  4  0
  1 12  4  0
  2  9  1  0
  2 11  4  0
  2 25  4  0
  3 12  4  0
  3 14  1  0
  3 23  4  0
  4 13  4  0
  4 21  4  0
  4 24  1  0
  5  8  4  0
  5 23  4  0
  6 18  2  0
  7 15  4  0
  7 16  1  0
  7 27  4  0
  8 18  1  0
 10 18  1  0
 10 20  1  0
 11 15  4  0
 11 26  1  0
 13 22  4  0
 16 19  1  0
 16 20  2  0
 17 19  4  0
 17 21  4  0
 19 22  4  0
 20 28  1  0
 25 27  4  0
M  END
$$$$

 Created by Python create_sdf_string function

 28 30  0  0  0  0  0  0  0  0999 V2000
   11.4592   11.2893   18.7941 C   0  0  0  0  0  0  0  0  0  0  0  0
    3.4202    7.9009   20.3866 C   0  0  0  0  0  0  0  0  0  0  0  0
   13.5280   10.3522   19.3586 C   0  0  0  0  0  0  0  0  0  0  0  0
    9.6923    5.6468   22.7891 C   0  0  0  0  0  0  0  0  0  0  0  0
   11.7756   10.2554   20.8841 N   0  0  0  0  0  0  0  0  0  0  0  0
    8.9876   11.9370   19.8757 O   0  0  0  0  0  0  0  0  0  0  0  0
    6.0167    8.4478   21.1089 C   0  0  0  0  0  0  0  0  0  0  0  0
   11.0002   10.8890   20.0262 C   0  0  0  0  0  0  0  0  0  0  0  0
    2.1721    7.7393   20.0315 O   0  0  0  0  0  0  0  0  0  0  0  0
    9.1107   10.3880   21.3769 N   0  0  0  0  0  0  0  0  0  0  0  0
    3.9102    9.2008   20.3124 C   0  0  0  0  0  0  0  0  0  0  0  0
   12.7292   10.9960   18.4597 C   0  0  0  0  0  0  0  0  0  0  0  0
    9.3798    6.6793   23.6625 C   0  0  0  0  0  0  0  0  0  0  0  0
   14.7425   10.0739   19.0802 O   0  0  0  0  0  0  0  0  0  0  0  0
    5.1894    9.4673   20.7118 C   0  0  0  0  0  0  0  0  0  0  0  0
    7.3773    8.8224   21.4870 C   0  0  0  0  0  0  0  0  0  0  0  0
    8.4391    6.6439   21.0235 C   0  0  0  0  0  0  0  0  0  0  0  0
    9.6494   11.1353   20.4167 C   0  0  0  0  0  0  0  0  0  0  0  0
    8.1431    7.6829   21.9046 C   0  0  0  0  0  0  0  0  0  0  0  0
    7.7796   10.1314   21.5115 N   0  0  0  0  0  0  0  0  0  0  0  0
    9.2768    5.6183   21.4437 C   0  0  0  0  0  0  0  0  0  0  0  0
    8.6315    7.7322   23.1768 C   0  0  0  0  0  0  0  0  0  0  0  0
   13.0537    9.9821   20.5781 C   0  0  0  0  0  0  0  0  0  0  0  0
   10.3850    4.6575   23.2386 O   0  0  0  0  0  0  0  0  0  0  0  0
    4.2069    6.8450   20.7994 C   0  0  0  0  0  0  0  0  0  0  0  0
    3.0726   10.1043   19.8522 O   0  0  0  0  0  0  0  0  0  0  0  0
    5.5057    7.1196   21.1155 C   0  0  0  0  0  0  0  0  0  0  0  0
    7.0367   11.0229   21.9948 O   0  0  0  0  0  0  0  0  0  0  0  0
  1  8  4  0
  1 12  4  0
  2  9  1  0
  2 11  4  0
  2 25  4  0
  3 12  4  0
  3 14  1  0
  3 23  4  0
  4 13  4  0
  4 21  4  0
  4 24  1  0
  5  8  4  0
  5 23  4  0
  6 18  2  0
  7 15  4  0
  7 16  1  0
  7 27  4  0
  8 18  1  0
 10 18  1  0
 10 20  1  0
 11 15  4  0
 11 26  1  0
 13 22  4  0
 16 19  1  0
 16 20  2  0
 17 19  4  0
 17 21  4  0
 19 22  4  0
 20 28  1  0
 25 27  4  0
M  END
$$$$

 Created by Python create_sdf_string function

 28 30  0  0  0  0  0  0  0  0999 V2000
   11.4592   11.2893   18.7941 C   0  0  0  0  0  0  0  0  0  0  0  0
    3.4202    7.9009   20.3866 C   0  0  0  0  0  0  0  0  0  0  0  0
   13.5280   10.3522   19.3586 C   0  0  0  0  0  0  0  0  0  0  0  0
    9.6923    5.6468   22.7891 C   0  0  0  0  0  0  0  0  0  0  0  0
   11.7756   10.2554   20.8841 N   0  0  0  0  0  0  0  0  0  0  0  0
    8.9876   11.9370   19.8757 O   0  0  0  0  0  0  0  0  0  0  0  0
    6.0167    8.4478   21.1089 C   0  0  0  0  0  0  0  0  0  0  0  0
   11.0002   10.8890   20.0262 C   0  0  0  0  0  0  0  0  0  0  0  0
    2.1721    7.7393   20.0315 O   0  0  0  0  0  0  0  0  0  0  0  0
    9.1107   10.3880   21.3769 N   0  0  0  0  0  0  0  0  0  0  0  0
    3.9102    9.2008   20.3124 C   0  0  0  0  0  0  0  0  0  0  0  0
   12.7292   10.9960   18.4597 C   0  0  0  0  0  0  0  0  0  0  0  0
    9.3798    6.6793   23.6625 C   0  0  0  0  0  0  0  0  0  0  0  0
   14.7425   10.0739   19.0802 O   0  0  0  0  0  0  0  0  0  0  0  0
    5.1894    9.4673   20.7118 C   0  0  0  0  0  0  0  0  0  0  0  0
    7.3773    8.8224   21.4870 C   0  0  0  0  0  0  0  0  0  0  0  0
    8.4391    6.6439   21.0235 C   0  0  0  0  0  0  0  0  0  0  0  0
    9.6494   11.1353   20.4167 C   0  0  0  0  0  0  0  0  0  0  0  0
    8.1431    7.6829   21.9046 C   0  0  0  0  0  0  0  0  0  0  0  0
    7.7796   10.1314   21.5115 N   0  0  0  0  0  0  0  0  0  0  0  0
    9.2768    5.6183   21.4437 C   0  0  0  0  0  0  0  0  0  0  0  0
    8.6315    7.7322   23.1768 C   0  0  0  0  0  0  0  0  0  0  0  0
   13.0537    9.9821   20.5781 C   0  0  0  0  0  0  0  0  0  0  0  0
   10.3850    4.6575   23.2386 O   0  0  0  0  0  0  0  0  0  0  0  0
    4.2069    6.8450   20.7994 C   0  0  0  0  0  0  0  0  0  0  0  0
    3.0726   10.1043   19.8522 O   0  0  0  0  0  0  0  0  0  0  0  0
    5.5057    7.1196   21.1155 C   0  0  0  0  0  0  0  0  0  0  0  0
    7.0367   11.0229   21.9948 O   0  0  0  0  0  0  0  0  0  0  0  0
  1  8  4  0
  1 12  4  0
  2  9  1  0
  2 11  4  0
  2 25  4  0
  3 12  4  0
  3 14  1  0
  3 23  4  0
  4 13  4  0
  4 21  4  0
  4 24  1  0
  5  8  4  0
  5 23  4  0
  6 18  2  0
  7 15  4  0
  7 16  1  0
  7 27  4  0
  8 18  1  0
 10 18  1  0
 10 20  1  0
 11 15  4  0
 11 26  1  0
 13 22  4  0
 16 19  1  0
 16 20  2  0
 17 19  4  0
 17 21  4  0
 19 22  4  0
 20 28  1  0
 25 27  4  0
M  END
$$$$

 Created by Python create_sdf_string function

 28 30  0  0  0  0  0  0  0  0999 V2000
   11.4592   11.2893   18.7941 C   0  0  0  0  0  0  0  0  0  0  0  0
    3.4202    7.9009   20.3866 C   0  0  0  0  0  0  0  0  0  0  0  0
   13.5280   10.3522   19.3586 C   0  0  0  0  0  0  0  0  0  0  0  0
    9.6923    5.6468   22.7891 C   0  0  0  0  0  0  0  0  0  0  0  0
   11.7756   10.2554   20.8841 N   0  0  0  0  0  0  0  0  0  0  0  0
    8.9876   11.9370   19.8757 O   0  0  0  0  0  0  0  0  0  0  0  0
    6.0167    8.4478   21.1089 C   0  0  0  0  0  0  0  0  0  0  0  0
   11.0002   10.8890   20.0262 C   0  0  0  0  0  0  0  0  0  0  0  0
    2.1721    7.7393   20.0315 O   0  0  0  0  0  0  0  0  0  0  0  0
    9.1107   10.3880   21.3769 N   0  0  0  0  0  0  0  0  0  0  0  0
    3.9102    9.2008   20.3124 C   0  0  0  0  0  0  0  0  0  0  0  0
   12.7292   10.9960   18.4597 C   0  0  0  0  0  0  0  0  0  0  0  0
    9.3798    6.6793   23.6625 C   0  0  0  0  0  0  0  0  0  0  0  0
   14.7425   10.0739   19.0802 O   0  0  0  0  0  0  0  0  0  0  0  0
    5.1894    9.4673   20.7118 C   0  0  0  0  0  0  0  0  0  0  0  0
    7.3773    8.8224   21.4870 C   0  0  0  0  0  0  0  0  0  0  0  0
    8.4391    6.6439   21.0235 C   0  0  0  0  0  0  0  0  0  0  0  0
    9.6494   11.1353   20.4167 C   0  0  0  0  0  0  0  0  0  0  0  0
    8.1431    7.6829   21.9046 C   0  0  0  0  0  0  0  0  0  0  0  0
    7.7796   10.1314   21.5115 N   0  0  0  0  0  0  0  0  0  0  0  0
    9.2768    5.6183   21.4437 C   0  0  0  0  0  0  0  0  0  0  0  0
    8.6315    7.7322   23.1768 C   0  0  0  0  0  0  0  0  0  0  0  0
   13.0537    9.9821   20.5781 C   0  0  0  0  0  0  0  0  0  0  0  0
   10.3850    4.6575   23.2386 O   0  0  0  0  0  0  0  0  0  0  0  0
    4.2069    6.8450   20.7994 C   0  0  0  0  0  0  0  0  0  0  0  0
    3.0726   10.1043   19.8522 O   0  0  0  0  0  0  0  0  0  0  0  0
    5.5057    7.1196   21.1155 C   0  0  0  0  0  0  0  0  0  0  0  0
    7.0367   11.0229   21.9948 O   0  0  0  0  0  0  0  0  0  0  0  0
  1  8  4  0
  1 12  4  0
  2  9  1  0
  2 11  4  0
  2 25  4  0
  3 12  4  0
  3 14  1  0
  3 23  4  0
  4 13  4  0
  4 21  4  0
  4 24  1  0
  5  8  4  0
  5 23  4  0
  6 18  2  0
  7 15  4  0
  7 16  1  0
  7 27  4  0
  8 18  1  0
 10 18  1  0
 10 20  1  0
 11 15  4  0
 11 26  1  0
 13 22  4  0
 16 19  1  0
 16 20  2  0
 17 19  4  0
 17 21  4  0
 19 22  4  0
 20 28  1  0
 25 27  4  0
M  END
$$$$

 Created by Python create_sdf_string function

 28 30  0  0  0  0  0  0  0  0999 V2000
   11.4592   11.2893   18.7941 C   0  0  0  0  0  0  0  0  0  0  0  0
    3.4202    7.9009   20.3866 C   0  0  0  0  0  0  0  0  0  0  0  0
   13.5280   10.3522   19.3586 C   0  0  0  0  0  0  0  0  0  0  0  0
    9.6923    5.6468   22.7891 C   0  0  0  0  0  0  0  0  0  0  0  0
   11.7756   10.2554   20.8841 N   0  0  0  0  0  0  0  0  0  0  0  0
    8.9876   11.9370   19.8757 O   0  0  0  0  0  0  0  0  0  0  0  0
    6.0167    8.4478   21.1089 C   0  0  0  0  0  0  0  0  0  0  0  0
   11.0002   10.8890   20.0262 C   0  0  0  0  0  0  0  0  0  0  0  0
    2.1721    7.7393   20.0315 O   0  0  0  0  0  0  0  0  0  0  0  0
    9.1107   10.3880   21.3769 N   0  0  0  0  0  0  0  0  0  0  0  0
    3.9102    9.2008   20.3124 C   0  0  0  0  0  0  0  0  0  0  0  0
   12.7292   10.9960   18.4597 C   0  0  0  0  0  0  0  0  0  0  0  0
    9.3798    6.6793   23.6625 C   0  0  0  0  0  0  0  0  0  0  0  0
   14.7425   10.0739   19.0802 O   0  0  0  0  0  0  0  0  0  0  0  0
    5.1894    9.4673   20.7118 C   0  0  0  0  0  0  0  0  0  0  0  0
    7.3773    8.8224   21.4870 C   0  0  0  0  0  0  0  0  0  0  0  0
    8.4391    6.6439   21.0235 C   0  0  0  0  0  0  0  0  0  0  0  0
    9.6494   11.1353   20.4167 C   0  0  0  0  0  0  0  0  0  0  0  0
    8.1431    7.6829   21.9046 C   0  0  0  0  0  0  0  0  0  0  0  0
    7.7796   10.1314   21.5115 N   0  0  0  0  0  0  0  0  0  0  0  0
    9.2768    5.6183   21.4437 C   0  0  0  0  0  0  0  0  0  0  0  0
    8.6315    7.7322   23.1768 C   0  0  0  0  0  0  0  0  0  0  0  0
   13.0537    9.9821   20.5781 C   0  0  0  0  0  0  0  0  0  0  0  0
   10.3850    4.6575   23.2386 O   0  0  0  0  0  0  0  0  0  0  0  0
    4.2069    6.8450   20.7994 C   0  0  0  0  0  0  0  0  0  0  0  0
    3.0726   10.1043   19.8522 O   0  0  0  0  0  0  0  0  0  0  0  0
    5.5057    7.1196   21.1155 C   0  0  0  0  0  0  0  0  0  0  0  0
    7.0367   11.0229   21.9948 O   0  0  0  0  0  0  0  0  0  0  0  0
  1  8  4  0
  1 12  4  0
  2  9  1  0
  2 11  4  0
  2 25  4  0
  3 12  4  0
  3 14  1  0
  3 23  4  0
  4 13  4  0
  4 21  4  0
  4 24  1  0
  5  8  4  0
  5 23  4  0
  6 18  2  0
  7 15  4  0
  7 16  1  0
  7 27  4  0
  8 18  1  0
 10 18  1  0
 10 20  1  0
 11 15  4  0
 11 26  1  0
 13 22  4  0
 16 19  1  0
 16 20  2  0
 17 19  4  0
 17 21  4  0
 19 22  4  0
 20 28  1  0
 25 27  4  0
M  END
$$$$

 Created by Python create_sdf_string function

 28 30  0  0  0  0  0  0  0  0999 V2000
   11.4592   11.2893   18.7941 C   0  0  0  0  0  0  0  0  0  0  0  0
    3.4202    7.9009   20.3866 C   0  0  0  0  0  0  0  0  0  0  0  0
   13.5280   10.3522   19.3586 C   0  0  0  0  0  0  0  0  0  0  0  0
    9.6923    5.6468   22.7891 C   0  0  0  0  0  0  0  0  0  0  0  0
   11.7756   10.2554   20.8841 N   0  0  0  0  0  0  0  0  0  0  0  0
    8.9876   11.9370   19.8757 O   0  0  0  0  0  0  0  0  0  0  0  0
    6.0167    8.4478   21.1089 C   0  0  0  0  0  0  0  0  0  0  0  0
   11.0002   10.8890   20.0262 C   0  0  0  0  0  0  0  0  0  0  0  0
    2.1721    7.7393   20.0315 O   0  0  0  0  0  0  0  0  0  0  0  0
    9.1107   10.3880   21.3769 N   0  0  0  0  0  0  0  0  0  0  0  0
    3.9102    9.2008   20.3124 C   0  0  0  0  0  0  0  0  0  0  0  0
   12.7292   10.9960   18.4597 C   0  0  0  0  0  0  0  0  0  0  0  0
    9.3798    6.6793   23.6625 C   0  0  0  0  0  0  0  0  0  0  0  0
   14.7425   10.0739   19.0802 O   0  0  0  0  0  0  0  0  0  0  0  0
    5.1894    9.4673   20.7118 C   0  0  0  0  0  0  0  0  0  0  0  0
    7.3773    8.8224   21.4870 C   0  0  0  0  0  0  0  0  0  0  0  0
    8.4391    6.6439   21.0235 C   0  0  0  0  0  0  0  0  0  0  0  0
    9.6494   11.1353   20.4167 C   0  0  0  0  0  0  0  0  0  0  0  0
    8.1431    7.6829   21.9046 C   0  0  0  0  0  0  0  0  0  0  0  0
    7.7796   10.1314   21.5115 N   0  0  0  0  0  0  0  0  0  0  0  0
    9.2768    5.6183   21.4437 C   0  0  0  0  0  0  0  0  0  0  0  0
    8.6315    7.7322   23.1768 C   0  0  0  0  0  0  0  0  0  0  0  0
   13.0537    9.9821   20.5781 C   0  0  0  0  0  0  0  0  0  0  0  0
   10.3850    4.6575   23.2386 O   0  0  0  0  0  0  0  0  0  0  0  0
    4.2069    6.8450   20.7994 C   0  0  0  0  0  0  0  0  0  0  0  0
    3.0726   10.1043   19.8522 O   0  0  0  0  0  0  0  0  0  0  0  0
    5.5057    7.1196   21.1155 C   0  0  0  0  0  0  0  0  0  0  0  0
    7.0367   11.0229   21.9948 O   0  0  0  0  0  0  0  0  0  0  0  0
  1  8  4  0
  1 12  4  0
  2  9  1  0
  2 11  4  0
  2 25  4  0
  3 12  4  0
  3 14  1  0
  3 23  4  0
  4 13  4  0
  4 21  4  0
  4 24  1  0
  5  8  4  0
  5 23  4  0
  6 18  2  0
  7 15  4  0
  7 16  1  0
  7 27  4  0
  8 18  1  0
 10 18  1  0
 10 20  1  0
 11 15  4  0
 11 26  1  0
 13 22  4  0
 16 19  1  0
 16 20  2  0
 17 19  4  0
 17 21  4  0
 19 22  4  0
 20 28  1  0
 25 27  4  0
M  END
$$$$

 Created by Python create_sdf_string function

 28 30  0  0  0  0  0  0  0  0999 V2000
   11.4592   11.2893   18.7941 C   0  0  0  0  0  0  0  0  0  0  0  0
    3.4202    7.9009   20.3866 C   0  0  0  0  0  0  0  0  0  0  0  0
   13.5280   10.3522   19.3586 C   0  0  0  0  0  0  0  0  0  0  0  0
    9.6923    5.6468   22.7891 C   0  0  0  0  0  0  0  0  0  0  0  0
   11.7756   10.2554   20.8841 N   0  0  0  0  0  0  0  0  0  0  0  0
    8.9876   11.9370   19.8757 O   0  0  0  0  0  0  0  0  0  0  0  0
    6.0167    8.4478   21.1089 C   0  0  0  0  0  0  0  0  0  0  0  0
   11.0002   10.8890   20.0262 C   0  0  0  0  0  0  0  0  0  0  0  0
    2.1721    7.7393   20.0315 O   0  0  0  0  0  0  0  0  0  0  0  0
    9.1107   10.3880   21.3769 N   0  0  0  0  0  0  0  0  0  0  0  0
    3.9102    9.2008   20.3124 C   0  0  0  0  0  0  0  0  0  0  0  0
   12.7292   10.9960   18.4597 C   0  0  0  0  0  0  0  0  0  0  0  0
    9.3798    6.6793   23.6625 C   0  0  0  0  0  0  0  0  0  0  0  0
   14.7425   10.0739   19.0802 O   0  0  0  0  0  0  0  0  0  0  0  0
    5.1894    9.4673   20.7118 C   0  0  0  0  0  0  0  0  0  0  0  0
    7.3773    8.8224   21.4870 C   0  0  0  0  0  0  0  0  0  0  0  0
    8.4391    6.6439   21.0235 C   0  0  0  0  0  0  0  0  0  0  0  0
    9.6494   11.1353   20.4167 C   0  0  0  0  0  0  0  0  0  0  0  0
    8.1431    7.6829   21.9046 C   0  0  0  0  0  0  0  0  0  0  0  0
    7.7796   10.1314   21.5115 N   0  0  0  0  0  0  0  0  0  0  0  0
    9.2768    5.6183   21.4437 C   0  0  0  0  0  0  0  0  0  0  0  0
    8.6315    7.7322   23.1768 C   0  0  0  0  0  0  0  0  0  0  0  0
   13.0537    9.9821   20.5781 C   0  0  0  0  0  0  0  0  0  0  0  0
   10.3850    4.6575   23.2386 O   0  0  0  0  0  0  0  0  0  0  0  0
    4.2069    6.8450   20.7994 C   0  0  0  0  0  0  0  0  0  0  0  0
    3.0726   10.1043   19.8522 O   0  0  0  0  0  0  0  0  0  0  0  0
    5.5057    7.1196   21.1155 C   0  0  0  0  0  0  0  0  0  0  0  0
    7.0367   11.0229   21.9948 O   0  0  0  0  0  0  0  0  0  0  0  0
  1  8  4  0
  1 12  4  0
  2  9  1  0
  2 11  4  0
  2 25  4  0
  3 12  4  0
  3 14  1  0
  3 23  4  0
  4 13  4  0
  4 21  4  0
  4 24  1  0
  5  8  4  0
  5 23  4  0
  6 18  2  0
  7 15  4  0
  7 16  1  0
  7 27  4  0
  8 18  1  0
 10 18  1  0
 10 20  1  0
 11 15  4  0
 11 26  1  0
 13 22  4  0
 16 19  1  0
 16 20  2  0
 17 19  4  0
 17 21  4  0
 19 22  4  0
 20 28  1  0
 25 27  4  0
M  END
$$$$

 Created by Python create_sdf_string function

 28 30  0  0  0  0  0  0  0  0999 V2000
   11.4592   11.2893   18.7941 C   0  0  0  0  0  0  0  0  0  0  0  0
    3.4202    7.9009   20.3866 C   0  0  0  0  0  0  0  0  0  0  0  0
   13.5280   10.3522   19.3586 C   0  0  0  0  0  0  0  0  0  0  0  0
    9.6923    5.6468   22.7891 C   0  0  0  0  0  0  0  0  0  0  0  0
   11.7756   10.2554   20.8841 N   0  0  0  0  0  0  0  0  0  0  0  0
    8.9876   11.9370   19.8757 O   0  0  0  0  0  0  0  0  0  0  0  0
    6.0167    8.4478   21.1089 C   0  0  0  0  0  0  0  0  0  0  0  0
   11.0002   10.8890   20.0262 C   0  0  0  0  0  0  0  0  0  0  0  0
    2.1721    7.7393   20.0315 O   0  0  0  0  0  0  0  0  0  0  0  0
    9.1107   10.3880   21.3769 N   0  0  0  0  0  0  0  0  0  0  0  0
    3.9102    9.2008   20.3124 C   0  0  0  0  0  0  0  0  0  0  0  0
   12.7292   10.9960   18.4597 C   0  0  0  0  0  0  0  0  0  0  0  0
    9.3798    6.6793   23.6625 C   0  0  0  0  0  0  0  0  0  0  0  0
   14.7425   10.0739   19.0802 O   0  0  0  0  0  0  0  0  0  0  0  0
    5.1894    9.4673   20.7118 C   0  0  0  0  0  0  0  0  0  0  0  0
    7.3773    8.8224   21.4870 C   0  0  0  0  0  0  0  0  0  0  0  0
    8.4391    6.6439   21.0235 C   0  0  0  0  0  0  0  0  0  0  0  0
    9.6494   11.1353   20.4167 C   0  0  0  0  0  0  0  0  0  0  0  0
    8.1431    7.6829   21.9046 C   0  0  0  0  0  0  0  0  0  0  0  0
    7.7796   10.1314   21.5115 N   0  0  0  0  0  0  0  0  0  0  0  0
    9.2768    5.6183   21.4437 C   0  0  0  0  0  0  0  0  0  0  0  0
    8.6315    7.7322   23.1768 C   0  0  0  0  0  0  0  0  0  0  0  0
   13.0537    9.9821   20.5781 C   0  0  0  0  0  0  0  0  0  0  0  0
   10.3850    4.6575   23.2386 O   0  0  0  0  0  0  0  0  0  0  0  0
    4.2069    6.8450   20.7994 C   0  0  0  0  0  0  0  0  0  0  0  0
    3.0726   10.1043   19.8522 O   0  0  0  0  0  0  0  0  0  0  0  0
    5.5057    7.1196   21.1155 C   0  0  0  0  0  0  0  0  0  0  0  0
    7.0367   11.0229   21.9948 O   0  0  0  0  0  0  0  0  0  0  0  0
  1  8  4  0
  1 12  4  0
  2  9  1  0
  2 11  4  0
  2 25  4  0
  3 12  4  0
  3 14  1  0
  3 23  4  0
  4 13  4  0
  4 21  4  0
  4 24  1  0
  5  8  4  0
  5 23  4  0
  6 18  2  0
  7 15  4  0
  7 16  1  0
  7 27  4  0
  8 18  1  0
 10 18  1  0
 10 20  1  0
 11 15  4  0
 11 26  1  0
 13 22  4  0
 16 19  1  0
 16 20  2  0
 17 19  4  0
 17 21  4  0
 19 22  4  0
 20 28  1  0
 25 27  4  0
M  END
$$$$

 Created by Python create_sdf_string function

 28 30  0  0  0  0  0  0  0  0999 V2000
   11.4592   11.2893   18.7941 C   0  0  0  0  0  0  0  0  0  0  0  0
    3.4202    7.9009   20.3866 C   0  0  0  0  0  0  0  0  0  0  0  0
   13.5280   10.3522   19.3586 C   0  0  0  0  0  0  0  0  0  0  0  0
    9.6923    5.6468   22.7891 C   0  0  0  0  0  0  0  0  0  0  0  0
   11.7756   10.2554   20.8841 N   0  0  0  0  0  0  0  0  0  0  0  0
    8.9876   11.9370   19.8757 O   0  0  0  0  0  0  0  0  0  0  0  0
    6.0167    8.4478   21.1089 C   0  0  0  0  0  0  0  0  0  0  0  0
   11.0002   10.8890   20.0262 C   0  0  0  0  0  0  0  0  0  0  0  0
    2.1721    7.7393   20.0315 O   0  0  0  0  0  0  0  0  0  0  0  0
    9.1107   10.3880   21.3769 N   0  0  0  0  0  0  0  0  0  0  0  0
    3.9102    9.2008   20.3124 C   0  0  0  0  0  0  0  0  0  0  0  0
   12.7292   10.9960   18.4597 C   0  0  0  0  0  0  0  0  0  0  0  0
    9.3798    6.6793   23.6625 C   0  0  0  0  0  0  0  0  0  0  0  0
   14.7425   10.0739   19.0802 O   0  0  0  0  0  0  0  0  0  0  0  0
    5.1894    9.4673   20.7118 C   0  0  0  0  0  0  0  0  0  0  0  0
    7.3773    8.8224   21.4870 C   0  0  0  0  0  0  0  0  0  0  0  0
    8.4391    6.6439   21.0235 C   0  0  0  0  0  0  0  0  0  0  0  0
    9.6494   11.1353   20.4167 C   0  0  0  0  0  0  0  0  0  0  0  0
    8.1431    7.6829   21.9046 C   0  0  0  0  0  0  0  0  0  0  0  0
    7.7796   10.1314   21.5115 N   0  0  0  0  0  0  0  0  0  0  0  0
    9.2768    5.6183   21.4437 C   0  0  0  0  0  0  0  0  0  0  0  0
    8.6315    7.7322   23.1768 C   0  0  0  0  0  0  0  0  0  0  0  0
   13.0537    9.9821   20.5781 C   0  0  0  0  0  0  0  0  0  0  0  0
   10.3850    4.6575   23.2386 O   0  0  0  0  0  0  0  0  0  0  0  0
    4.2069    6.8450   20.7994 C   0  0  0  0  0  0  0  0  0  0  0  0
    3.0726   10.1043   19.8522 O   0  0  0  0  0  0  0  0  0  0  0  0
    5.5057    7.1196   21.1155 C   0  0  0  0  0  0  0  0  0  0  0  0
    7.0367   11.0229   21.9948 O   0  0  0  0  0  0  0  0  0  0  0  0
  1  8  4  0
  1 12  4  0
  2  9  1  0
  2 11  4  0
  2 25  4  0
  3 12  4  0
  3 14  1  0
  3 23  4  0
  4 13  4  0
  4 21  4  0
  4 24  1  0
  5  8  4  0
  5 23  4  0
  6 18  2  0
  7 15  4  0
  7 16  1  0
  7 27  4  0
  8 18  1  0
 10 18  1  0
 10 20  1  0
 11 15  4  0
 11 26  1  0
 13 22  4  0
 16 19  1  0
 16 20  2  0
 17 19  4  0
 17 21  4  0
 19 22  4  0
 20 28  1  0
 25 27  4  0
M  END
$$$$

 Created by Python create_sdf_string function

 28 30  0  0  0  0  0  0  0  0999 V2000
   11.4592   11.2893   18.7941 C   0  0  0  0  0  0  0  0  0  0  0  0
    3.4202    7.9009   20.3866 C   0  0  0  0  0  0  0  0  0  0  0  0
   13.5280   10.3522   19.3586 C   0  0  0  0  0  0  0  0  0  0  0  0
    9.6923    5.6468   22.7891 C   0  0  0  0  0  0  0  0  0  0  0  0
   11.7756   10.2554   20.8841 N   0  0  0  0  0  0  0  0  0  0  0  0
    8.9876   11.9370   19.8757 O   0  0  0  0  0  0  0  0  0  0  0  0
    6.0167    8.4478   21.1089 C   0  0  0  0  0  0  0  0  0  0  0  0
   11.0002   10.8890   20.0262 C   0  0  0  0  0  0  0  0  0  0  0  0
    2.1721    7.7393   20.0315 O   0  0  0  0  0  0  0  0  0  0  0  0
    9.1107   10.3880   21.3769 N   0  0  0  0  0  0  0  0  0  0  0  0
    3.9102    9.2008   20.3124 C   0  0  0  0  0  0  0  0  0  0  0  0
   12.7292   10.9960   18.4597 C   0  0  0  0  0  0  0  0  0  0  0  0
    9.3798    6.6793   23.6625 C   0  0  0  0  0  0  0  0  0  0  0  0
   14.7425   10.0739   19.0802 O   0  0  0  0  0  0  0  0  0  0  0  0
    5.1894    9.4673   20.7118 C   0  0  0  0  0  0  0  0  0  0  0  0
    7.3773    8.8224   21.4870 C   0  0  0  0  0  0  0  0  0  0  0  0
    8.4391    6.6439   21.0235 C   0  0  0  0  0  0  0  0  0  0  0  0
    9.6494   11.1353   20.4167 C   0  0  0  0  0  0  0  0  0  0  0  0
    8.1431    7.6829   21.9046 C   0  0  0  0  0  0  0  0  0  0  0  0
    7.7796   10.1314   21.5115 N   0  0  0  0  0  0  0  0  0  0  0  0
    9.2768    5.6183   21.4437 C   0  0  0  0  0  0  0  0  0  0  0  0
    8.6315    7.7322   23.1768 C   0  0  0  0  0  0  0  0  0  0  0  0
   13.0537    9.9821   20.5781 C   0  0  0  0  0  0  0  0  0  0  0  0
   10.3850    4.6575   23.2386 O   0  0  0  0  0  0  0  0  0  0  0  0
    4.2069    6.8450   20.7994 C   0  0  0  0  0  0  0  0  0  0  0  0
    3.0726   10.1043   19.8522 O   0  0  0  0  0  0  0  0  0  0  0  0
    5.5057    7.1196   21.1155 C   0  0  0  0  0  0  0  0  0  0  0  0
    7.0367   11.0229   21.9948 O   0  0  0  0  0  0  0  0  0  0  0  0
  1  8  4  0
  1 12  4  0
  2  9  1  0
  2 11  4  0
  2 25  4  0
  3 12  4  0
  3 14  1  0
  3 23  4  0
  4 13  4  0
  4 21  4  0
  4 24  1  0
  5  8  4  0
  5 23  4  0
  6 18  2  0
  7 15  4  0
  7 16  1  0
  7 27  4  0
  8 18  1  0
 10 18  1  0
 10 20  1  0
 11 15  4  0
 11 26  1  0
 13 22  4  0
 16 19  1  0
 16 20  2  0
 17 19  4  0
 17 21  4  0
 19 22  4  0
 20 28  1  0
 25 27  4  0
M  END
$$$$

 Created by Python create_sdf_string function

 28 30  0  0  0  0  0  0  0  0999 V2000
   11.4592   11.2893   18.7941 C   0  0  0  0  0  0  0  0  0  0  0  0
    3.4202    7.9009   20.3866 C   0  0  0  0  0  0  0  0  0  0  0  0
   13.5280   10.3522   19.3586 C   0  0  0  0  0  0  0  0  0  0  0  0
    9.6923    5.6468   22.7891 C   0  0  0  0  0  0  0  0  0  0  0  0
   11.7756   10.2554   20.8841 N   0  0  0  0  0  0  0  0  0  0  0  0
    8.9876   11.9370   19.8757 O   0  0  0  0  0  0  0  0  0  0  0  0
    6.0167    8.4478   21.1089 C   0  0  0  0  0  0  0  0  0  0  0  0
   11.0002   10.8890   20.0262 C   0  0  0  0  0  0  0  0  0  0  0  0
    2.1721    7.7393   20.0315 O   0  0  0  0  0  0  0  0  0  0  0  0
    9.1107   10.3880   21.3769 N   0  0  0  0  0  0  0  0  0  0  0  0
    3.9102    9.2008   20.3124 C   0  0  0  0  0  0  0  0  0  0  0  0
   12.7292   10.9960   18.4597 C   0  0  0  0  0  0  0  0  0  0  0  0
    9.3798    6.6793   23.6625 C   0  0  0  0  0  0  0  0  0  0  0  0
   14.7425   10.0739   19.0802 O   0  0  0  0  0  0  0  0  0  0  0  0
    5.1894    9.4673   20.7118 C   0  0  0  0  0  0  0  0  0  0  0  0
    7.3773    8.8224   21.4870 C   0  0  0  0  0  0  0  0  0  0  0  0
    8.4391    6.6439   21.0235 C   0  0  0  0  0  0  0  0  0  0  0  0
    9.6494   11.1353   20.4167 C   0  0  0  0  0  0  0  0  0  0  0  0
    8.1431    7.6829   21.9046 C   0  0  0  0  0  0  0  0  0  0  0  0
    7.7796   10.1314   21.5115 N   0  0  0  0  0  0  0  0  0  0  0  0
    9.2768    5.6183   21.4437 C   0  0  0  0  0  0  0  0  0  0  0  0
    8.6315    7.7322   23.1768 C   0  0  0  0  0  0  0  0  0  0  0  0
   13.0537    9.9821   20.5781 C   0  0  0  0  0  0  0  0  0  0  0  0
   10.3850    4.6575   23.2386 O   0  0  0  0  0  0  0  0  0  0  0  0
    4.2069    6.8450   20.7994 C   0  0  0  0  0  0  0  0  0  0  0  0
    3.0726   10.1043   19.8522 O   0  0  0  0  0  0  0  0  0  0  0  0
    5.5057    7.1196   21.1155 C   0  0  0  0  0  0  0  0  0  0  0  0
    7.0367   11.0229   21.9948 O   0  0  0  0  0  0  0  0  0  0  0  0
  1  8  4  0
  1 12  4  0
  2  9  1  0
  2 11  4  0
  2 25  4  0
  3 12  4  0
  3 14  1  0
  3 23  4  0
  4 13  4  0
  4 21  4  0
  4 24  1  0
  5  8  4  0
  5 23  4  0
  6 18  2  0
  7 15  4  0
  7 16  1  0
  7 27  4  0
  8 18  1  0
 10 18  1  0
 10 20  1  0
 11 15  4  0
 11 26  1  0
 13 22  4  0
 16 19  1  0
 16 20  2  0
 17 19  4  0
 17 21  4  0
 19 22  4  0
 20 28  1  0
 25 27  4  0
M  END
$$$$

 Created by Python create_sdf_string function

 28 30  0  0  0  0  0  0  0  0999 V2000
   11.4592   11.2893   18.7941 C   0  0  0  0  0  0  0  0  0  0  0  0
    3.4202    7.9009   20.3866 C   0  0  0  0  0  0  0  0  0  0  0  0
   13.5280   10.3522   19.3586 C   0  0  0  0  0  0  0  0  0  0  0  0
    9.6923    5.6468   22.7891 C   0  0  0  0  0  0  0  0  0  0  0  0
   11.7756   10.2554   20.8841 N   0  0  0  0  0  0  0  0  0  0  0  0
    8.9876   11.9370   19.8757 O   0  0  0  0  0  0  0  0  0  0  0  0
    6.0167    8.4478   21.1089 C   0  0  0  0  0  0  0  0  0  0  0  0
   11.0002   10.8890   20.0262 C   0  0  0  0  0  0  0  0  0  0  0  0
    2.1721    7.7393   20.0315 O   0  0  0  0  0  0  0  0  0  0  0  0
    9.1107   10.3880   21.3769 N   0  0  0  0  0  0  0  0  0  0  0  0
    3.9102    9.2008   20.3124 C   0  0  0  0  0  0  0  0  0  0  0  0
   12.7292   10.9960   18.4597 C   0  0  0  0  0  0  0  0  0  0  0  0
    9.3798    6.6793   23.6625 C   0  0  0  0  0  0  0  0  0  0  0  0
   14.7425   10.0739   19.0802 O   0  0  0  0  0  0  0  0  0  0  0  0
    5.1894    9.4673   20.7118 C   0  0  0  0  0  0  0  0  0  0  0  0
    7.3773    8.8224   21.4870 C   0  0  0  0  0  0  0  0  0  0  0  0
    8.4391    6.6439   21.0235 C   0  0  0  0  0  0  0  0  0  0  0  0
    9.6494   11.1353   20.4167 C   0  0  0  0  0  0  0  0  0  0  0  0
    8.1431    7.6829   21.9046 C   0  0  0  0  0  0  0  0  0  0  0  0
    7.7796   10.1314   21.5115 N   0  0  0  0  0  0  0  0  0  0  0  0
    9.2768    5.6183   21.4437 C   0  0  0  0  0  0  0  0  0  0  0  0
    8.6315    7.7322   23.1768 C   0  0  0  0  0  0  0  0  0  0  0  0
   13.0537    9.9821   20.5781 C   0  0  0  0  0  0  0  0  0  0  0  0
   10.3850    4.6575   23.2386 O   0  0  0  0  0  0  0  0  0  0  0  0
    4.2069    6.8450   20.7994 C   0  0  0  0  0  0  0  0  0  0  0  0
    3.0726   10.1043   19.8522 O   0  0  0  0  0  0  0  0  0  0  0  0
    5.5057    7.1196   21.1155 C   0  0  0  0  0  0  0  0  0  0  0  0
    7.0367   11.0229   21.9948 O   0  0  0  0  0  0  0  0  0  0  0  0
  1  8  4  0
  1 12  4  0
  2  9  1  0
  2 11  4  0
  2 25  4  0
  3 12  4  0
  3 14  1  0
  3 23  4  0
  4 13  4  0
  4 21  4  0
  4 24  1  0
  5  8  4  0
  5 23  4  0
  6 18  2  0
  7 15  4  0
  7 16  1  0
  7 27  4  0
  8 18  1  0
 10 18  1  0
 10 20  1  0
 11 15  4  0
 11 26  1  0
 13 22  4  0
 16 19  1  0
 16 20  2  0
 17 19  4  0
 17 21  4  0
 19 22  4  0
 20 28  1  0
 25 27  4  0
M  END
$$$$

 Created by Python create_sdf_string function

 28 30  0  0  0  0  0  0  0  0999 V2000
   11.4592   11.2893   18.7941 C   0  0  0  0  0  0  0  0  0  0  0  0
    3.4202    7.9009   20.3866 C   0  0  0  0  0  0  0  0  0  0  0  0
   13.5280   10.3522   19.3586 C   0  0  0  0  0  0  0  0  0  0  0  0
    9.6923    5.6468   22.7891 C   0  0  0  0  0  0  0  0  0  0  0  0
   11.7756   10.2554   20.8841 N   0  0  0  0  0  0  0  0  0  0  0  0
    8.9876   11.9370   19.8757 O   0  0  0  0  0  0  0  0  0  0  0  0
    6.0167    8.4478   21.1089 C   0  0  0  0  0  0  0  0  0  0  0  0
   11.0002   10.8890   20.0262 C   0  0  0  0  0  0  0  0  0  0  0  0
    2.1721    7.7393   20.0315 O   0  0  0  0  0  0  0  0  0  0  0  0
    9.1107   10.3880   21.3769 N   0  0  0  0  0  0  0  0  0  0  0  0
    3.9102    9.2008   20.3124 C   0  0  0  0  0  0  0  0  0  0  0  0
   12.7292   10.9960   18.4597 C   0  0  0  0  0  0  0  0  0  0  0  0
    9.3798    6.6793   23.6625 C   0  0  0  0  0  0  0  0  0  0  0  0
   14.7425   10.0739   19.0802 O   0  0  0  0  0  0  0  0  0  0  0  0
    5.1894    9.4673   20.7118 C   0  0  0  0  0  0  0  0  0  0  0  0
    7.3773    8.8224   21.4870 C   0  0  0  0  0  0  0  0  0  0  0  0
    8.4391    6.6439   21.0235 C   0  0  0  0  0  0  0  0  0  0  0  0
    9.6494   11.1353   20.4167 C   0  0  0  0  0  0  0  0  0  0  0  0
    8.1431    7.6829   21.9046 C   0  0  0  0  0  0  0  0  0  0  0  0
    7.7796   10.1314   21.5115 N   0  0  0  0  0  0  0  0  0  0  0  0
    9.2768    5.6183   21.4437 C   0  0  0  0  0  0  0  0  0  0  0  0
    8.6315    7.7322   23.1768 C   0  0  0  0  0  0  0  0  0  0  0  0
   13.0537    9.9821   20.5781 C   0  0  0  0  0  0  0  0  0  0  0  0
   10.3850    4.6575   23.2386 O   0  0  0  0  0  0  0  0  0  0  0  0
    4.2069    6.8450   20.7994 C   0  0  0  0  0  0  0  0  0  0  0  0
    3.0726   10.1043   19.8522 O   0  0  0  0  0  0  0  0  0  0  0  0
    5.5057    7.1196   21.1155 C   0  0  0  0  0  0  0  0  0  0  0  0
    7.0367   11.0229   21.9948 O   0  0  0  0  0  0  0  0  0  0  0  0
  1  8  4  0
  1 12  4  0
  2  9  1  0
  2 11  4  0
  2 25  4  0
  3 12  4  0
  3 14  1  0
  3 23  4  0
  4 13  4  0
  4 21  4  0
  4 24  1  0
  5  8  4  0
  5 23  4  0
  6 18  2  0
  7 15  4  0
  7 16  1  0
  7 27  4  0
  8 18  1  0
 10 18  1  0
 10 20  1  0
 11 15  4  0
 11 26  1  0
 13 22  4  0
 16 19  1  0
 16 20  2  0
 17 19  4  0
 17 21  4  0
 19 22  4  0
 20 28  1  0
 25 27  4  0
M  END
$$$$

 Created by Python create_sdf_string function

 28 30  0  0  0  0  0  0  0  0999 V2000
   11.4592   11.2893   18.7941 C   0  0  0  0  0  0  0  0  0  0  0  0
    3.4202    7.9009   20.3866 C   0  0  0  0  0  0  0  0  0  0  0  0
   13.5280   10.3522   19.3586 C   0  0  0  0  0  0  0  0  0  0  0  0
    9.6923    5.6468   22.7891 C   0  0  0  0  0  0  0  0  0  0  0  0
   11.7756   10.2554   20.8841 N   0  0  0  0  0  0  0  0  0  0  0  0
    8.9876   11.9370   19.8757 O   0  0  0  0  0  0  0  0  0  0  0  0
    6.0167    8.4478   21.1089 C   0  0  0  0  0  0  0  0  0  0  0  0
   11.0002   10.8890   20.0262 C   0  0  0  0  0  0  0  0  0  0  0  0
    2.1721    7.7393   20.0315 O   0  0  0  0  0  0  0  0  0  0  0  0
    9.1107   10.3880   21.3769 N   0  0  0  0  0  0  0  0  0  0  0  0
    3.9102    9.2008   20.3124 C   0  0  0  0  0  0  0  0  0  0  0  0
   12.7292   10.9960   18.4597 C   0  0  0  0  0  0  0  0  0  0  0  0
    9.3798    6.6793   23.6625 C   0  0  0  0  0  0  0  0  0  0  0  0
   14.7425   10.0739   19.0802 O   0  0  0  0  0  0  0  0  0  0  0  0
    5.1894    9.4673   20.7118 C   0  0  0  0  0  0  0  0  0  0  0  0
    7.3773    8.8224   21.4870 C   0  0  0  0  0  0  0  0  0  0  0  0
    8.4391    6.6439   21.0235 C   0  0  0  0  0  0  0  0  0  0  0  0
    9.6494   11.1353   20.4167 C   0  0  0  0  0  0  0  0  0  0  0  0
    8.1431    7.6829   21.9046 C   0  0  0  0  0  0  0  0  0  0  0  0
    7.7796   10.1314   21.5115 N   0  0  0  0  0  0  0  0  0  0  0  0
    9.2768    5.6183   21.4437 C   0  0  0  0  0  0  0  0  0  0  0  0
    8.6315    7.7322   23.1768 C   0  0  0  0  0  0  0  0  0  0  0  0
   13.0537    9.9821   20.5781 C   0  0  0  0  0  0  0  0  0  0  0  0
   10.3850    4.6575   23.2386 O   0  0  0  0  0  0  0  0  0  0  0  0
    4.2069    6.8450   20.7994 C   0  0  0  0  0  0  0  0  0  0  0  0
    3.0726   10.1043   19.8522 O   0  0  0  0  0  0  0  0  0  0  0  0
    5.5057    7.1196   21.1155 C   0  0  0  0  0  0  0  0  0  0  0  0
    7.0367   11.0229   21.9948 O   0  0  0  0  0  0  0  0  0  0  0  0
  1  8  4  0
  1 12  4  0
  2  9  1  0
  2 11  4  0
  2 25  4  0
  3 12  4  0
  3 14  1  0
  3 23  4  0
  4 13  4  0
  4 21  4  0
  4 24  1  0
  5  8  4  0
  5 23  4  0
  6 18  2  0
  7 15  4  0
  7 16  1  0
  7 27  4  0
  8 18  1  0
 10 18  1  0
 10 20  1  0
 11 15  4  0
 11 26  1  0
 13 22  4  0
 16 19  1  0
 16 20  2  0
 17 19  4  0
 17 21  4  0
 19 22  4  0
 20 28  1  0
 25 27  4  0
M  END
$$$$

 Created by Python create_sdf_string function

 28 30  0  0  0  0  0  0  0  0999 V2000
   11.4592   11.2893   18.7941 C   0  0  0  0  0  0  0  0  0  0  0  0
    3.4202    7.9009   20.3866 C   0  0  0  0  0  0  0  0  0  0  0  0
   13.5280   10.3522   19.3586 C   0  0  0  0  0  0  0  0  0  0  0  0
    9.6923    5.6468   22.7891 C   0  0  0  0  0  0  0  0  0  0  0  0
   11.7756   10.2554   20.8841 N   0  0  0  0  0  0  0  0  0  0  0  0
    8.9876   11.9370   19.8757 O   0  0  0  0  0  0  0  0  0  0  0  0
    6.0167    8.4478   21.1089 C   0  0  0  0  0  0  0  0  0  0  0  0
   11.0002   10.8890   20.0262 C   0  0  0  0  0  0  0  0  0  0  0  0
    2.1721    7.7393   20.0315 O   0  0  0  0  0  0  0  0  0  0  0  0
    9.1107   10.3880   21.3769 N   0  0  0  0  0  0  0  0  0  0  0  0
    3.9102    9.2008   20.3124 C   0  0  0  0  0  0  0  0  0  0  0  0
   12.7292   10.9960   18.4597 C   0  0  0  0  0  0  0  0  0  0  0  0
    9.3798    6.6793   23.6625 C   0  0  0  0  0  0  0  0  0  0  0  0
   14.7425   10.0739   19.0802 O   0  0  0  0  0  0  0  0  0  0  0  0
    5.1894    9.4673   20.7118 C   0  0  0  0  0  0  0  0  0  0  0  0
    7.3773    8.8224   21.4870 C   0  0  0  0  0  0  0  0  0  0  0  0
    8.4391    6.6439   21.0235 C   0  0  0  0  0  0  0  0  0  0  0  0
    9.6494   11.1353   20.4167 C   0  0  0  0  0  0  0  0  0  0  0  0
    8.1431    7.6829   21.9046 C   0  0  0  0  0  0  0  0  0  0  0  0
    7.7796   10.1314   21.5115 N   0  0  0  0  0  0  0  0  0  0  0  0
    9.2768    5.6183   21.4437 C   0  0  0  0  0  0  0  0  0  0  0  0
    8.6315    7.7322   23.1768 C   0  0  0  0  0  0  0  0  0  0  0  0
   13.0537    9.9821   20.5781 C   0  0  0  0  0  0  0  0  0  0  0  0
   10.3850    4.6575   23.2386 O   0  0  0  0  0  0  0  0  0  0  0  0
    4.2069    6.8450   20.7994 C   0  0  0  0  0  0  0  0  0  0  0  0
    3.0726   10.1043   19.8522 O   0  0  0  0  0  0  0  0  0  0  0  0
    5.5057    7.1196   21.1155 C   0  0  0  0  0  0  0  0  0  0  0  0
    7.0367   11.0229   21.9948 O   0  0  0  0  0  0  0  0  0  0  0  0
  1  8  4  0
  1 12  4  0
  2  9  1  0
  2 11  4  0
  2 25  4  0
  3 12  4  0
  3 14  1  0
  3 23  4  0
  4 13  4  0
  4 21  4  0
  4 24  1  0
  5  8  4  0
  5 23  4  0
  6 18  2  0
  7 15  4  0
  7 16  1  0
  7 27  4  0
  8 18  1  0
 10 18  1  0
 10 20  1  0
 11 15  4  0
 11 26  1  0
 13 22  4  0
 16 19  1  0
 16 20  2  0
 17 19  4  0
 17 21  4  0
 19 22  4  0
 20 28  1  0
 25 27  4  0
M  END
$$$$

 Created by Python create_sdf_string function

 28 30  0  0  0  0  0  0  0  0999 V2000
   11.4592   11.2893   18.7941 C   0  0  0  0  0  0  0  0  0  0  0  0
    3.4202    7.9009   20.3866 C   0  0  0  0  0  0  0  0  0  0  0  0
   13.5280   10.3522   19.3586 C   0  0  0  0  0  0  0  0  0  0  0  0
    9.6923    5.6468   22.7891 C   0  0  0  0  0  0  0  0  0  0  0  0
   11.7756   10.2554   20.8841 N   0  0  0  0  0  0  0  0  0  0  0  0
    8.9876   11.9370   19.8757 O   0  0  0  0  0  0  0  0  0  0  0  0
    6.0167    8.4478   21.1089 C   0  0  0  0  0  0  0  0  0  0  0  0
   11.0002   10.8890   20.0262 C   0  0  0  0  0  0  0  0  0  0  0  0
    2.1721    7.7393   20.0315 O   0  0  0  0  0  0  0  0  0  0  0  0
    9.1107   10.3880   21.3769 N   0  0  0  0  0  0  0  0  0  0  0  0
    3.9102    9.2008   20.3124 C   0  0  0  0  0  0  0  0  0  0  0  0
   12.7292   10.9960   18.4597 C   0  0  0  0  0  0  0  0  0  0  0  0
    9.3798    6.6793   23.6625 C   0  0  0  0  0  0  0  0  0  0  0  0
   14.7425   10.0739   19.0802 O   0  0  0  0  0  0  0  0  0  0  0  0
    5.1894    9.4673   20.7118 C   0  0  0  0  0  0  0  0  0  0  0  0
    7.3773    8.8224   21.4870 C   0  0  0  0  0  0  0  0  0  0  0  0
    8.4391    6.6439   21.0235 C   0  0  0  0  0  0  0  0  0  0  0  0
    9.6494   11.1353   20.4167 C   0  0  0  0  0  0  0  0  0  0  0  0
    8.1431    7.6829   21.9046 C   0  0  0  0  0  0  0  0  0  0  0  0
    7.7796   10.1314   21.5115 N   0  0  0  0  0  0  0  0  0  0  0  0
    9.2768    5.6183   21.4437 C   0  0  0  0  0  0  0  0  0  0  0  0
    8.6315    7.7322   23.1768 C   0  0  0  0  0  0  0  0  0  0  0  0
   13.0537    9.9821   20.5781 C   0  0  0  0  0  0  0  0  0  0  0  0
   10.3850    4.6575   23.2386 O   0  0  0  0  0  0  0  0  0  0  0  0
    4.2069    6.8450   20.7994 C   0  0  0  0  0  0  0  0  0  0  0  0
    3.0726   10.1043   19.8522 O   0  0  0  0  0  0  0  0  0  0  0  0
    5.5057    7.1196   21.1155 C   0  0  0  0  0  0  0  0  0  0  0  0
    7.0367   11.0229   21.9948 O   0  0  0  0  0  0  0  0  0  0  0  0
  1  8  4  0
  1 12  4  0
  2  9  1  0
  2 11  4  0
  2 25  4  0
  3 12  4  0
  3 14  1  0
  3 23  4  0
  4 13  4  0
  4 21  4  0
  4 24  1  0
  5  8  4  0
  5 23  4  0
  6 18  2  0
  7 15  4  0
  7 16  1  0
  7 27  4  0
  8 18  1  0
 10 18  1  0
 10 20  1  0
 11 15  4  0
 11 26  1  0
 13 22  4  0
 16 19  1  0
 16 20  2  0
 17 19  4  0
 17 21  4  0
 19 22  4  0
 20 28  1  0
 25 27  4  0
M  END
$$$$

 Created by Python create_sdf_string function

 28 30  0  0  0  0  0  0  0  0999 V2000
   11.4592   11.2893   18.7941 C   0  0  0  0  0  0  0  0  0  0  0  0
    3.4202    7.9009   20.3866 C   0  0  0  0  0  0  0  0  0  0  0  0
   13.5280   10.3522   19.3586 C   0  0  0  0  0  0  0  0  0  0  0  0
    9.6923    5.6468   22.7891 C   0  0  0  0  0  0  0  0  0  0  0  0
   11.7756   10.2554   20.8841 N   0  0  0  0  0  0  0  0  0  0  0  0
    8.9876   11.9370   19.8757 O   0  0  0  0  0  0  0  0  0  0  0  0
    6.0167    8.4478   21.1089 C   0  0  0  0  0  0  0  0  0  0  0  0
   11.0002   10.8890   20.0262 C   0  0  0  0  0  0  0  0  0  0  0  0
    2.1721    7.7393   20.0315 O   0  0  0  0  0  0  0  0  0  0  0  0
    9.1107   10.3880   21.3769 N   0  0  0  0  0  0  0  0  0  0  0  0
    3.9102    9.2008   20.3124 C   0  0  0  0  0  0  0  0  0  0  0  0
   12.7292   10.9960   18.4597 C   0  0  0  0  0  0  0  0  0  0  0  0
    9.3798    6.6793   23.6625 C   0  0  0  0  0  0  0  0  0  0  0  0
   14.7425   10.0739   19.0802 O   0  0  0  0  0  0  0  0  0  0  0  0
    5.1894    9.4673   20.7118 C   0  0  0  0  0  0  0  0  0  0  0  0
    7.3773    8.8224   21.4870 C   0  0  0  0  0  0  0  0  0  0  0  0
    8.4391    6.6439   21.0235 C   0  0  0  0  0  0  0  0  0  0  0  0
    9.6494   11.1353   20.4167 C   0  0  0  0  0  0  0  0  0  0  0  0
    8.1431    7.6829   21.9046 C   0  0  0  0  0  0  0  0  0  0  0  0
    7.7796   10.1314   21.5115 N   0  0  0  0  0  0  0  0  0  0  0  0
    9.2768    5.6183   21.4437 C   0  0  0  0  0  0  0  0  0  0  0  0
    8.6315    7.7322   23.1768 C   0  0  0  0  0  0  0  0  0  0  0  0
   13.0537    9.9821   20.5781 C   0  0  0  0  0  0  0  0  0  0  0  0
   10.3850    4.6575   23.2386 O   0  0  0  0  0  0  0  0  0  0  0  0
    4.2069    6.8450   20.7994 C   0  0  0  0  0  0  0  0  0  0  0  0
    3.0726   10.1043   19.8522 O   0  0  0  0  0  0  0  0  0  0  0  0
    5.5057    7.1196   21.1155 C   0  0  0  0  0  0  0  0  0  0  0  0
    7.0367   11.0229   21.9948 O   0  0  0  0  0  0  0  0  0  0  0  0
  1  8  4  0
  1 12  4  0
  2  9  1  0
  2 11  4  0
  2 25  4  0
  3 12  4  0
  3 14  1  0
  3 23  4  0
  4 13  4  0
  4 21  4  0
  4 24  1  0
  5  8  4  0
  5 23  4  0
  6 18  2  0
  7 15  4  0
  7 16  1  0
  7 27  4  0
  8 18  1  0
 10 18  1  0
 10 20  1  0
 11 15  4  0
 11 26  1  0
 13 22  4  0
 16 19  1  0
 16 20  2  0
 17 19  4  0
 17 21  4  0
 19 22  4  0
 20 28  1  0
 25 27  4  0
M  END
$$$$

 Created by Python create_sdf_string function

 28 30  0  0  0  0  0  0  0  0999 V2000
   11.4592   11.2893   18.7941 C   0  0  0  0  0  0  0  0  0  0  0  0
    3.4202    7.9009   20.3866 C   0  0  0  0  0  0  0  0  0  0  0  0
   13.5280   10.3522   19.3586 C   0  0  0  0  0  0  0  0  0  0  0  0
    9.6923    5.6468   22.7891 C   0  0  0  0  0  0  0  0  0  0  0  0
   11.7756   10.2554   20.8841 N   0  0  0  0  0  0  0  0  0  0  0  0
    8.9876   11.9370   19.8757 O   0  0  0  0  0  0  0  0  0  0  0  0
    6.0167    8.4478   21.1089 C   0  0  0  0  0  0  0  0  0  0  0  0
   11.0002   10.8890   20.0262 C   0  0  0  0  0  0  0  0  0  0  0  0
    2.1721    7.7393   20.0315 O   0  0  0  0  0  0  0  0  0  0  0  0
    9.1107   10.3880   21.3769 N   0  0  0  0  0  0  0  0  0  0  0  0
    3.9102    9.2008   20.3124 C   0  0  0  0  0  0  0  0  0  0  0  0
   12.7292   10.9960   18.4597 C   0  0  0  0  0  0  0  0  0  0  0  0
    9.3798    6.6793   23.6625 C   0  0  0  0  0  0  0  0  0  0  0  0
   14.7425   10.0739   19.0802 O   0  0  0  0  0  0  0  0  0  0  0  0
    5.1894    9.4673   20.7118 C   0  0  0  0  0  0  0  0  0  0  0  0
    7.3773    8.8224   21.4870 C   0  0  0  0  0  0  0  0  0  0  0  0
    8.4391    6.6439   21.0235 C   0  0  0  0  0  0  0  0  0  0  0  0
    9.6494   11.1353   20.4167 C   0  0  0  0  0  0  0  0  0  0  0  0
    8.1431    7.6829   21.9046 C   0  0  0  0  0  0  0  0  0  0  0  0
    7.7796   10.1314   21.5115 N   0  0  0  0  0  0  0  0  0  0  0  0
    9.2768    5.6183   21.4437 C   0  0  0  0  0  0  0  0  0  0  0  0
    8.6315    7.7322   23.1768 C   0  0  0  0  0  0  0  0  0  0  0  0
   13.0537    9.9821   20.5781 C   0  0  0  0  0  0  0  0  0  0  0  0
   10.3850    4.6575   23.2386 O   0  0  0  0  0  0  0  0  0  0  0  0
    4.2069    6.8450   20.7994 C   0  0  0  0  0  0  0  0  0  0  0  0
    3.0726   10.1043   19.8522 O   0  0  0  0  0  0  0  0  0  0  0  0
    5.5057    7.1196   21.1155 C   0  0  0  0  0  0  0  0  0  0  0  0
    7.0367   11.0229   21.9948 O   0  0  0  0  0  0  0  0  0  0  0  0
  1  8  4  0
  1 12  4  0
  2  9  1  0
  2 11  4  0
  2 25  4  0
  3 12  4  0
  3 14  1  0
  3 23  4  0
  4 13  4  0
  4 21  4  0
  4 24  1  0
  5  8  4  0
  5 23  4  0
  6 18  2  0
  7 15  4  0
  7 16  1  0
  7 27  4  0
  8 18  1  0
 10 18  1  0
 10 20  1  0
 11 15  4  0
 11 26  1  0
 13 22  4  0
 16 19  1  0
 16 20  2  0
 17 19  4  0
 17 21  4  0
 19 22  4  0
 20 28  1  0
 25 27  4  0
M  END
$$$$

 Created by Python create_sdf_string function

 28 30  0  0  0  0  0  0  0  0999 V2000
   11.4592   11.2893   18.7941 C   0  0  0  0  0  0  0  0  0  0  0  0
    3.4202    7.9009   20.3866 C   0  0  0  0  0  0  0  0  0  0  0  0
   13.5280   10.3522   19.3586 C   0  0  0  0  0  0  0  0  0  0  0  0
    9.6923    5.6468   22.7891 C   0  0  0  0  0  0  0  0  0  0  0  0
   11.7756   10.2554   20.8841 N   0  0  0  0  0  0  0  0  0  0  0  0
    8.9876   11.9370   19.8757 O   0  0  0  0  0  0  0  0  0  0  0  0
    6.0167    8.4478   21.1089 C   0  0  0  0  0  0  0  0  0  0  0  0
   11.0002   10.8890   20.0262 C   0  0  0  0  0  0  0  0  0  0  0  0
    2.1721    7.7393   20.0315 O   0  0  0  0  0  0  0  0  0  0  0  0
    9.1107   10.3880   21.3769 N   0  0  0  0  0  0  0  0  0  0  0  0
    3.9102    9.2008   20.3124 C   0  0  0  0  0  0  0  0  0  0  0  0
   12.7292   10.9960   18.4597 C   0  0  0  0  0  0  0  0  0  0  0  0
    9.3798    6.6793   23.6625 C   0  0  0  0  0  0  0  0  0  0  0  0
   14.7425   10.0739   19.0802 O   0  0  0  0  0  0  0  0  0  0  0  0
    5.1894    9.4673   20.7118 C   0  0  0  0  0  0  0  0  0  0  0  0
    7.3773    8.8224   21.4870 C   0  0  0  0  0  0  0  0  0  0  0  0
    8.4391    6.6439   21.0235 C   0  0  0  0  0  0  0  0  0  0  0  0
    9.6494   11.1353   20.4167 C   0  0  0  0  0  0  0  0  0  0  0  0
    8.1431    7.6829   21.9046 C   0  0  0  0  0  0  0  0  0  0  0  0
    7.7796   10.1314   21.5115 N   0  0  0  0  0  0  0  0  0  0  0  0
    9.2768    5.6183   21.4437 C   0  0  0  0  0  0  0  0  0  0  0  0
    8.6315    7.7322   23.1768 C   0  0  0  0  0  0  0  0  0  0  0  0
   13.0537    9.9821   20.5781 C   0  0  0  0  0  0  0  0  0  0  0  0
   10.3850    4.6575   23.2386 O   0  0  0  0  0  0  0  0  0  0  0  0
    4.2069    6.8450   20.7994 C   0  0  0  0  0  0  0  0  0  0  0  0
    3.0726   10.1043   19.8522 O   0  0  0  0  0  0  0  0  0  0  0  0
    5.5057    7.1196   21.1155 C   0  0  0  0  0  0  0  0  0  0  0  0
    7.0367   11.0229   21.9948 O   0  0  0  0  0  0  0  0  0  0  0  0
  1  8  4  0
  1 12  4  0
  2  9  1  0
  2 11  4  0
  2 25  4  0
  3 12  4  0
  3 14  1  0
  3 23  4  0
  4 13  4  0
  4 21  4  0
  4 24  1  0
  5  8  4  0
  5 23  4  0
  6 18  2  0
  7 15  4  0
  7 16  1  0
  7 27  4  0
  8 18  1  0
 10 18  1  0
 10 20  1  0
 11 15  4  0
 11 26  1  0
 13 22  4  0
 16 19  1  0
 16 20  2  0
 17 19  4  0
 17 21  4  0
 19 22  4  0
 20 28  1  0
 25 27  4  0
M  END
$$$$

 Created by Python create_sdf_string function

 28 30  0  0  0  0  0  0  0  0999 V2000
   11.4592   11.2893   18.7941 C   0  0  0  0  0  0  0  0  0  0  0  0
    3.4202    7.9009   20.3866 C   0  0  0  0  0  0  0  0  0  0  0  0
   13.5280   10.3522   19.3586 C   0  0  0  0  0  0  0  0  0  0  0  0
    9.6923    5.6468   22.7891 C   0  0  0  0  0  0  0  0  0  0  0  0
   11.7756   10.2554   20.8841 N   0  0  0  0  0  0  0  0  0  0  0  0
    8.9876   11.9370   19.8757 O   0  0  0  0  0  0  0  0  0  0  0  0
    6.0167    8.4478   21.1089 C   0  0  0  0  0  0  0  0  0  0  0  0
   11.0002   10.8890   20.0262 C   0  0  0  0  0  0  0  0  0  0  0  0
    2.1721    7.7393   20.0315 O   0  0  0  0  0  0  0  0  0  0  0  0
    9.1107   10.3880   21.3769 N   0  0  0  0  0  0  0  0  0  0  0  0
    3.9102    9.2008   20.3124 C   0  0  0  0  0  0  0  0  0  0  0  0
   12.7292   10.9960   18.4597 C   0  0  0  0  0  0  0  0  0  0  0  0
    9.3798    6.6793   23.6625 C   0  0  0  0  0  0  0  0  0  0  0  0
   14.7425   10.0739   19.0802 O   0  0  0  0  0  0  0  0  0  0  0  0
    5.1894    9.4673   20.7118 C   0  0  0  0  0  0  0  0  0  0  0  0
    7.3773    8.8224   21.4870 C   0  0  0  0  0  0  0  0  0  0  0  0
    8.4391    6.6439   21.0235 C   0  0  0  0  0  0  0  0  0  0  0  0
    9.6494   11.1353   20.4167 C   0  0  0  0  0  0  0  0  0  0  0  0
    8.1431    7.6829   21.9046 C   0  0  0  0  0  0  0  0  0  0  0  0
    7.7796   10.1314   21.5115 N   0  0  0  0  0  0  0  0  0  0  0  0
    9.2768    5.6183   21.4437 C   0  0  0  0  0  0  0  0  0  0  0  0
    8.6315    7.7322   23.1768 C   0  0  0  0  0  0  0  0  0  0  0  0
   13.0537    9.9821   20.5781 C   0  0  0  0  0  0  0  0  0  0  0  0
   10.3850    4.6575   23.2386 O   0  0  0  0  0  0  0  0  0  0  0  0
    4.2069    6.8450   20.7994 C   0  0  0  0  0  0  0  0  0  0  0  0
    3.0726   10.1043   19.8522 O   0  0  0  0  0  0  0  0  0  0  0  0
    5.5057    7.1196   21.1155 C   0  0  0  0  0  0  0  0  0  0  0  0
    7.0367   11.0229   21.9948 O   0  0  0  0  0  0  0  0  0  0  0  0
  1  8  4  0
  1 12  4  0
  2  9  1  0
  2 11  4  0
  2 25  4  0
  3 12  4  0
  3 14  1  0
  3 23  4  0
  4 13  4  0
  4 21  4  0
  4 24  1  0
  5  8  4  0
  5 23  4  0
  6 18  2  0
  7 15  4  0
  7 16  1  0
  7 27  4  0
  8 18  1  0
 10 18  1  0
 10 20  1  0
 11 15  4  0
 11 26  1  0
 13 22  4  0
 16 19  1  0
 16 20  2  0
 17 19  4  0
 17 21  4  0
 19 22  4  0
 20 28  1  0
 25 27  4  0
M  END
$$$$

 Created by Python create_sdf_string function

 28 30  0  0  0  0  0  0  0  0999 V2000
   11.4592   11.2893   18.7941 C   0  0  0  0  0  0  0  0  0  0  0  0
    3.4202    7.9009   20.3866 C   0  0  0  0  0  0  0  0  0  0  0  0
   13.5280   10.3522   19.3586 C   0  0  0  0  0  0  0  0  0  0  0  0
    9.6923    5.6468   22.7891 C   0  0  0  0  0  0  0  0  0  0  0  0
   11.7756   10.2554   20.8841 N   0  0  0  0  0  0  0  0  0  0  0  0
    8.9876   11.9370   19.8757 O   0  0  0  0  0  0  0  0  0  0  0  0
    6.0167    8.4478   21.1089 C   0  0  0  0  0  0  0  0  0  0  0  0
   11.0002   10.8890   20.0262 C   0  0  0  0  0  0  0  0  0  0  0  0
    2.1721    7.7393   20.0315 O   0  0  0  0  0  0  0  0  0  0  0  0
    9.1107   10.3880   21.3769 N   0  0  0  0  0  0  0  0  0  0  0  0
    3.9102    9.2008   20.3124 C   0  0  0  0  0  0  0  0  0  0  0  0
   12.7292   10.9960   18.4597 C   0  0  0  0  0  0  0  0  0  0  0  0
    9.3798    6.6793   23.6625 C   0  0  0  0  0  0  0  0  0  0  0  0
   14.7425   10.0739   19.0802 O   0  0  0  0  0  0  0  0  0  0  0  0
    5.1894    9.4673   20.7118 C   0  0  0  0  0  0  0  0  0  0  0  0
    7.3773    8.8224   21.4870 C   0  0  0  0  0  0  0  0  0  0  0  0
    8.4391    6.6439   21.0235 C   0  0  0  0  0  0  0  0  0  0  0  0
    9.6494   11.1353   20.4167 C   0  0  0  0  0  0  0  0  0  0  0  0
    8.1431    7.6829   21.9046 C   0  0  0  0  0  0  0  0  0  0  0  0
    7.7796   10.1314   21.5115 N   0  0  0  0  0  0  0  0  0  0  0  0
    9.2768    5.6183   21.4437 C   0  0  0  0  0  0  0  0  0  0  0  0
    8.6315    7.7322   23.1768 C   0  0  0  0  0  0  0  0  0  0  0  0
   13.0537    9.9821   20.5781 C   0  0  0  0  0  0  0  0  0  0  0  0
   10.3850    4.6575   23.2386 O   0  0  0  0  0  0  0  0  0  0  0  0
    4.2069    6.8450   20.7994 C   0  0  0  0  0  0  0  0  0  0  0  0
    3.0726   10.1043   19.8522 O   0  0  0  0  0  0  0  0  0  0  0  0
    5.5057    7.1196   21.1155 C   0  0  0  0  0  0  0  0  0  0  0  0
    7.0367   11.0229   21.9948 O   0  0  0  0  0  0  0  0  0  0  0  0
  1  8  4  0
  1 12  4  0
  2  9  1  0
  2 11  4  0
  2 25  4  0
  3 12  4  0
  3 14  1  0
  3 23  4  0
  4 13  4  0
  4 21  4  0
  4 24  1  0
  5  8  4  0
  5 23  4  0
  6 18  2  0
  7 15  4  0
  7 16  1  0
  7 27  4  0
  8 18  1  0
 10 18  1  0
 10 20  1  0
 11 15  4  0
 11 26  1  0
 13 22  4  0
 16 19  1  0
 16 20  2  0
 17 19  4  0
 17 21  4  0
 19 22  4  0
 20 28  1  0
 25 27  4  0
M  END
$$$$

 Created by Python create_sdf_string function

 28 30  0  0  0  0  0  0  0  0999 V2000
   11.4592   11.2893   18.7941 C   0  0  0  0  0  0  0  0  0  0  0  0
    3.4202    7.9009   20.3866 C   0  0  0  0  0  0  0  0  0  0  0  0
   13.5280   10.3522   19.3586 C   0  0  0  0  0  0  0  0  0  0  0  0
    9.6923    5.6468   22.7891 C   0  0  0  0  0  0  0  0  0  0  0  0
   11.7756   10.2554   20.8841 N   0  0  0  0  0  0  0  0  0  0  0  0
    8.9876   11.9370   19.8757 O   0  0  0  0  0  0  0  0  0  0  0  0
    6.0167    8.4478   21.1089 C   0  0  0  0  0  0  0  0  0  0  0  0
   11.0002   10.8890   20.0262 C   0  0  0  0  0  0  0  0  0  0  0  0
    2.1721    7.7393   20.0315 O   0  0  0  0  0  0  0  0  0  0  0  0
    9.1107   10.3880   21.3769 N   0  0  0  0  0  0  0  0  0  0  0  0
    3.9102    9.2008   20.3124 C   0  0  0  0  0  0  0  0  0  0  0  0
   12.7292   10.9960   18.4597 C   0  0  0  0  0  0  0  0  0  0  0  0
    9.3798    6.6793   23.6625 C   0  0  0  0  0  0  0  0  0  0  0  0
   14.7425   10.0739   19.0802 O   0  0  0  0  0  0  0  0  0  0  0  0
    5.1894    9.4673   20.7118 C   0  0  0  0  0  0  0  0  0  0  0  0
    7.3773    8.8224   21.4870 C   0  0  0  0  0  0  0  0  0  0  0  0
    8.4391    6.6439   21.0235 C   0  0  0  0  0  0  0  0  0  0  0  0
    9.6494   11.1353   20.4167 C   0  0  0  0  0  0  0  0  0  0  0  0
    8.1431    7.6829   21.9046 C   0  0  0  0  0  0  0  0  0  0  0  0
    7.7796   10.1314   21.5115 N   0  0  0  0  0  0  0  0  0  0  0  0
    9.2768    5.6183   21.4437 C   0  0  0  0  0  0  0  0  0  0  0  0
    8.6315    7.7322   23.1768 C   0  0  0  0  0  0  0  0  0  0  0  0
   13.0537    9.9821   20.5781 C   0  0  0  0  0  0  0  0  0  0  0  0
   10.3850    4.6575   23.2386 O   0  0  0  0  0  0  0  0  0  0  0  0
    4.2069    6.8450   20.7994 C   0  0  0  0  0  0  0  0  0  0  0  0
    3.0726   10.1043   19.8522 O   0  0  0  0  0  0  0  0  0  0  0  0
    5.5057    7.1196   21.1155 C   0  0  0  0  0  0  0  0  0  0  0  0
    7.0367   11.0229   21.9948 O   0  0  0  0  0  0  0  0  0  0  0  0
  1  8  4  0
  1 12  4  0
  2  9  1  0
  2 11  4  0
  2 25  4  0
  3 12  4  0
  3 14  1  0
  3 23  4  0
  4 13  4  0
  4 21  4  0
  4 24  1  0
  5  8  4  0
  5 23  4  0
  6 18  2  0
  7 15  4  0
  7 16  1  0
  7 27  4  0
  8 18  1  0
 10 18  1  0
 10 20  1  0
 11 15  4  0
 11 26  1  0
 13 22  4  0
 16 19  1  0
 16 20  2  0
 17 19  4  0
 17 21  4  0
 19 22  4  0
 20 28  1  0
 25 27  4  0
M  END
$$$$

 Created by Python create_sdf_string function

 28 30  0  0  0  0  0  0  0  0999 V2000
   11.4592   11.2893   18.7941 C   0  0  0  0  0  0  0  0  0  0  0  0
    3.4202    7.9009   20.3866 C   0  0  0  0  0  0  0  0  0  0  0  0
   13.5280   10.3522   19.3586 C   0  0  0  0  0  0  0  0  0  0  0  0
    9.6923    5.6468   22.7891 C   0  0  0  0  0  0  0  0  0  0  0  0
   11.7756   10.2554   20.8841 N   0  0  0  0  0  0  0  0  0  0  0  0
    8.9876   11.9370   19.8757 O   0  0  0  0  0  0  0  0  0  0  0  0
    6.0167    8.4478   21.1089 C   0  0  0  0  0  0  0  0  0  0  0  0
   11.0002   10.8890   20.0262 C   0  0  0  0  0  0  0  0  0  0  0  0
    2.1721    7.7393   20.0315 O   0  0  0  0  0  0  0  0  0  0  0  0
    9.1107   10.3880   21.3769 N   0  0  0  0  0  0  0  0  0  0  0  0
    3.9102    9.2008   20.3124 C   0  0  0  0  0  0  0  0  0  0  0  0
   12.7292   10.9960   18.4597 C   0  0  0  0  0  0  0  0  0  0  0  0
    9.3798    6.6793   23.6625 C   0  0  0  0  0  0  0  0  0  0  0  0
   14.7425   10.0739   19.0802 O   0  0  0  0  0  0  0  0  0  0  0  0
    5.1894    9.4673   20.7118 C   0  0  0  0  0  0  0  0  0  0  0  0
    7.3773    8.8224   21.4870 C   0  0  0  0  0  0  0  0  0  0  0  0
    8.4391    6.6439   21.0235 C   0  0  0  0  0  0  0  0  0  0  0  0
    9.6494   11.1353   20.4167 C   0  0  0  0  0  0  0  0  0  0  0  0
    8.1431    7.6829   21.9046 C   0  0  0  0  0  0  0  0  0  0  0  0
    7.7796   10.1314   21.5115 N   0  0  0  0  0  0  0  0  0  0  0  0
    9.2768    5.6183   21.4437 C   0  0  0  0  0  0  0  0  0  0  0  0
    8.6315    7.7322   23.1768 C   0  0  0  0  0  0  0  0  0  0  0  0
   13.0537    9.9821   20.5781 C   0  0  0  0  0  0  0  0  0  0  0  0
   10.3850    4.6575   23.2386 O   0  0  0  0  0  0  0  0  0  0  0  0
    4.2069    6.8450   20.7994 C   0  0  0  0  0  0  0  0  0  0  0  0
    3.0726   10.1043   19.8522 O   0  0  0  0  0  0  0  0  0  0  0  0
    5.5057    7.1196   21.1155 C   0  0  0  0  0  0  0  0  0  0  0  0
    7.0367   11.0229   21.9948 O   0  0  0  0  0  0  0  0  0  0  0  0
  1  8  4  0
  1 12  4  0
  2  9  1  0
  2 11  4  0
  2 25  4  0
  3 12  4  0
  3 14  1  0
  3 23  4  0
  4 13  4  0
  4 21  4  0
  4 24  1  0
  5  8  4  0
  5 23  4  0
  6 18  2  0
  7 15  4  0
  7 16  1  0
  7 27  4  0
  8 18  1  0
 10 18  1  0
 10 20  1  0
 11 15  4  0
 11 26  1  0
 13 22  4  0
 16 19  1  0
 16 20  2  0
 17 19  4  0
 17 21  4  0
 19 22  4  0
 20 28  1  0
 25 27  4  0
M  END
$$$$

 Created by Python create_sdf_string function

 28 30  0  0  0  0  0  0  0  0999 V2000
   11.4592   11.2893   18.7941 C   0  0  0  0  0  0  0  0  0  0  0  0
    3.4202    7.9009   20.3866 C   0  0  0  0  0  0  0  0  0  0  0  0
   13.5280   10.3522   19.3586 C   0  0  0  0  0  0  0  0  0  0  0  0
    9.6923    5.6468   22.7891 C   0  0  0  0  0  0  0  0  0  0  0  0
   11.7756   10.2554   20.8841 N   0  0  0  0  0  0  0  0  0  0  0  0
    8.9876   11.9370   19.8757 O   0  0  0  0  0  0  0  0  0  0  0  0
    6.0167    8.4478   21.1089 C   0  0  0  0  0  0  0  0  0  0  0  0
   11.0002   10.8890   20.0262 C   0  0  0  0  0  0  0  0  0  0  0  0
    2.1721    7.7393   20.0315 O   0  0  0  0  0  0  0  0  0  0  0  0
    9.1107   10.3880   21.3769 N   0  0  0  0  0  0  0  0  0  0  0  0
    3.9102    9.2008   20.3124 C   0  0  0  0  0  0  0  0  0  0  0  0
   12.7292   10.9960   18.4597 C   0  0  0  0  0  0  0  0  0  0  0  0
    9.3798    6.6793   23.6625 C   0  0  0  0  0  0  0  0  0  0  0  0
   14.7425   10.0739   19.0802 O   0  0  0  0  0  0  0  0  0  0  0  0
    5.1894    9.4673   20.7118 C   0  0  0  0  0  0  0  0  0  0  0  0
    7.3773    8.8224   21.4870 C   0  0  0  0  0  0  0  0  0  0  0  0
    8.4391    6.6439   21.0235 C   0  0  0  0  0  0  0  0  0  0  0  0
    9.6494   11.1353   20.4167 C   0  0  0  0  0  0  0  0  0  0  0  0
    8.1431    7.6829   21.9046 C   0  0  0  0  0  0  0  0  0  0  0  0
    7.7796   10.1314   21.5115 N   0  0  0  0  0  0  0  0  0  0  0  0
    9.2768    5.6183   21.4437 C   0  0  0  0  0  0  0  0  0  0  0  0
    8.6315    7.7322   23.1768 C   0  0  0  0  0  0  0  0  0  0  0  0
   13.0537    9.9821   20.5781 C   0  0  0  0  0  0  0  0  0  0  0  0
   10.3850    4.6575   23.2386 O   0  0  0  0  0  0  0  0  0  0  0  0
    4.2069    6.8450   20.7994 C   0  0  0  0  0  0  0  0  0  0  0  0
    3.0726   10.1043   19.8522 O   0  0  0  0  0  0  0  0  0  0  0  0
    5.5057    7.1196   21.1155 C   0  0  0  0  0  0  0  0  0  0  0  0
    7.0367   11.0229   21.9948 O   0  0  0  0  0  0  0  0  0  0  0  0
  1  8  4  0
  1 12  4  0
  2  9  1  0
  2 11  4  0
  2 25  4  0
  3 12  4  0
  3 14  1  0
  3 23  4  0
  4 13  4  0
  4 21  4  0
  4 24  1  0
  5  8  4  0
  5 23  4  0
  6 18  2  0
  7 15  4  0
  7 16  1  0
  7 27  4  0
  8 18  1  0
 10 18  1  0
 10 20  1  0
 11 15  4  0
 11 26  1  0
 13 22  4  0
 16 19  1  0
 16 20  2  0
 17 19  4  0
 17 21  4  0
 19 22  4  0
 20 28  1  0
 25 27  4  0
M  END
$$$$

 Created by Python create_sdf_string function

 28 30  0  0  0  0  0  0  0  0999 V2000
   11.4592   11.2893   18.7941 C   0  0  0  0  0  0  0  0  0  0  0  0
    3.4202    7.9009   20.3866 C   0  0  0  0  0  0  0  0  0  0  0  0
   13.5280   10.3522   19.3586 C   0  0  0  0  0  0  0  0  0  0  0  0
    9.6923    5.6468   22.7891 C   0  0  0  0  0  0  0  0  0  0  0  0
   11.7756   10.2554   20.8841 N   0  0  0  0  0  0  0  0  0  0  0  0
    8.9876   11.9370   19.8757 O   0  0  0  0  0  0  0  0  0  0  0  0
    6.0167    8.4478   21.1089 C   0  0  0  0  0  0  0  0  0  0  0  0
   11.0002   10.8890   20.0262 C   0  0  0  0  0  0  0  0  0  0  0  0
    2.1721    7.7393   20.0315 O   0  0  0  0  0  0  0  0  0  0  0  0
    9.1107   10.3880   21.3769 N   0  0  0  0  0  0  0  0  0  0  0  0
    3.9102    9.2008   20.3124 C   0  0  0  0  0  0  0  0  0  0  0  0
   12.7292   10.9960   18.4597 C   0  0  0  0  0  0  0  0  0  0  0  0
    9.3798    6.6793   23.6625 C   0  0  0  0  0  0  0  0  0  0  0  0
   14.7425   10.0739   19.0802 O   0  0  0  0  0  0  0  0  0  0  0  0
    5.1894    9.4673   20.7118 C   0  0  0  0  0  0  0  0  0  0  0  0
    7.3773    8.8224   21.4870 C   0  0  0  0  0  0  0  0  0  0  0  0
    8.4391    6.6439   21.0235 C   0  0  0  0  0  0  0  0  0  0  0  0
    9.6494   11.1353   20.4167 C   0  0  0  0  0  0  0  0  0  0  0  0
    8.1431    7.6829   21.9046 C   0  0  0  0  0  0  0  0  0  0  0  0
    7.7796   10.1314   21.5115 N   0  0  0  0  0  0  0  0  0  0  0  0
    9.2768    5.6183   21.4437 C   0  0  0  0  0  0  0  0  0  0  0  0
    8.6315    7.7322   23.1768 C   0  0  0  0  0  0  0  0  0  0  0  0
   13.0537    9.9821   20.5781 C   0  0  0  0  0  0  0  0  0  0  0  0
   10.3850    4.6575   23.2386 O   0  0  0  0  0  0  0  0  0  0  0  0
    4.2069    6.8450   20.7994 C   0  0  0  0  0  0  0  0  0  0  0  0
    3.0726   10.1043   19.8522 O   0  0  0  0  0  0  0  0  0  0  0  0
    5.5057    7.1196   21.1155 C   0  0  0  0  0  0  0  0  0  0  0  0
    7.0367   11.0229   21.9948 O   0  0  0  0  0  0  0  0  0  0  0  0
  1  8  4  0
  1 12  4  0
  2  9  1  0
  2 11  4  0
  2 25  4  0
  3 12  4  0
  3 14  1  0
  3 23  4  0
  4 13  4  0
  4 21  4  0
  4 24  1  0
  5  8  4  0
  5 23  4  0
  6 18  2  0
  7 15  4  0
  7 16  1  0
  7 27  4  0
  8 18  1  0
 10 18  1  0
 10 20  1  0
 11 15  4  0
 11 26  1  0
 13 22  4  0
 16 19  1  0
 16 20  2  0
 17 19  4  0
 17 21  4  0
 19 22  4  0
 20 28  1  0
 25 27  4  0
M  END
$$$$

 Created by Python create_sdf_string function

 28 30  0  0  0  0  0  0  0  0999 V2000
   11.4592   11.2893   18.7941 C   0  0  0  0  0  0  0  0  0  0  0  0
    3.4202    7.9009   20.3866 C   0  0  0  0  0  0  0  0  0  0  0  0
   13.5280   10.3522   19.3586 C   0  0  0  0  0  0  0  0  0  0  0  0
    9.6923    5.6468   22.7891 C   0  0  0  0  0  0  0  0  0  0  0  0
   11.7756   10.2554   20.8841 N   0  0  0  0  0  0  0  0  0  0  0  0
    8.9876   11.9370   19.8757 O   0  0  0  0  0  0  0  0  0  0  0  0
    6.0167    8.4478   21.1089 C   0  0  0  0  0  0  0  0  0  0  0  0
   11.0002   10.8890   20.0262 C   0  0  0  0  0  0  0  0  0  0  0  0
    2.1721    7.7393   20.0315 O   0  0  0  0  0  0  0  0  0  0  0  0
    9.1107   10.3880   21.3769 N   0  0  0  0  0  0  0  0  0  0  0  0
    3.9102    9.2008   20.3124 C   0  0  0  0  0  0  0  0  0  0  0  0
   12.7292   10.9960   18.4597 C   0  0  0  0  0  0  0  0  0  0  0  0
    9.3798    6.6793   23.6625 C   0  0  0  0  0  0  0  0  0  0  0  0
   14.7425   10.0739   19.0802 O   0  0  0  0  0  0  0  0  0  0  0  0
    5.1894    9.4673   20.7118 C   0  0  0  0  0  0  0  0  0  0  0  0
    7.3773    8.8224   21.4870 C   0  0  0  0  0  0  0  0  0  0  0  0
    8.4391    6.6439   21.0235 C   0  0  0  0  0  0  0  0  0  0  0  0
    9.6494   11.1353   20.4167 C   0  0  0  0  0  0  0  0  0  0  0  0
    8.1431    7.6829   21.9046 C   0  0  0  0  0  0  0  0  0  0  0  0
    7.7796   10.1314   21.5115 N   0  0  0  0  0  0  0  0  0  0  0  0
    9.2768    5.6183   21.4437 C   0  0  0  0  0  0  0  0  0  0  0  0
    8.6315    7.7322   23.1768 C   0  0  0  0  0  0  0  0  0  0  0  0
   13.0537    9.9821   20.5781 C   0  0  0  0  0  0  0  0  0  0  0  0
   10.3850    4.6575   23.2386 O   0  0  0  0  0  0  0  0  0  0  0  0
    4.2069    6.8450   20.7994 C   0  0  0  0  0  0  0  0  0  0  0  0
    3.0726   10.1043   19.8522 O   0  0  0  0  0  0  0  0  0  0  0  0
    5.5057    7.1196   21.1155 C   0  0  0  0  0  0  0  0  0  0  0  0
    7.0367   11.0229   21.9948 O   0  0  0  0  0  0  0  0  0  0  0  0
  1  8  4  0
  1 12  4  0
  2  9  1  0
  2 11  4  0
  2 25  4  0
  3 12  4  0
  3 14  1  0
  3 23  4  0
  4 13  4  0
  4 21  4  0
  4 24  1  0
  5  8  4  0
  5 23  4  0
  6 18  2  0
  7 15  4  0
  7 16  1  0
  7 27  4  0
  8 18  1  0
 10 18  1  0
 10 20  1  0
 11 15  4  0
 11 26  1  0
 13 22  4  0
 16 19  1  0
 16 20  2  0
 17 19  4  0
 17 21  4  0
 19 22  4  0
 20 28  1  0
 25 27  4  0
M  END
$$$$

 Created by Python create_sdf_string function

 28 30  0  0  0  0  0  0  0  0999 V2000
   11.4592   11.2893   18.7941 C   0  0  0  0  0  0  0  0  0  0  0  0
    3.4202    7.9009   20.3866 C   0  0  0  0  0  0  0  0  0  0  0  0
   13.5280   10.3522   19.3586 C   0  0  0  0  0  0  0  0  0  0  0  0
    9.6923    5.6468   22.7891 C   0  0  0  0  0  0  0  0  0  0  0  0
   11.7756   10.2554   20.8841 N   0  0  0  0  0  0  0  0  0  0  0  0
    8.9876   11.9370   19.8757 O   0  0  0  0  0  0  0  0  0  0  0  0
    6.0167    8.4478   21.1089 C   0  0  0  0  0  0  0  0  0  0  0  0
   11.0002   10.8890   20.0262 C   0  0  0  0  0  0  0  0  0  0  0  0
    2.1721    7.7393   20.0315 O   0  0  0  0  0  0  0  0  0  0  0  0
    9.1107   10.3880   21.3769 N   0  0  0  0  0  0  0  0  0  0  0  0
    3.9102    9.2008   20.3124 C   0  0  0  0  0  0  0  0  0  0  0  0
   12.7292   10.9960   18.4597 C   0  0  0  0  0  0  0  0  0  0  0  0
    9.3798    6.6793   23.6625 C   0  0  0  0  0  0  0  0  0  0  0  0
   14.7425   10.0739   19.0802 O   0  0  0  0  0  0  0  0  0  0  0  0
    5.1894    9.4673   20.7118 C   0  0  0  0  0  0  0  0  0  0  0  0
    7.3773    8.8224   21.4870 C   0  0  0  0  0  0  0  0  0  0  0  0
    8.4391    6.6439   21.0235 C   0  0  0  0  0  0  0  0  0  0  0  0
    9.6494   11.1353   20.4167 C   0  0  0  0  0  0  0  0  0  0  0  0
    8.1431    7.6829   21.9046 C   0  0  0  0  0  0  0  0  0  0  0  0
    7.7796   10.1314   21.5115 N   0  0  0  0  0  0  0  0  0  0  0  0
    9.2768    5.6183   21.4437 C   0  0  0  0  0  0  0  0  0  0  0  0
    8.6315    7.7322   23.1768 C   0  0  0  0  0  0  0  0  0  0  0  0
   13.0537    9.9821   20.5781 C   0  0  0  0  0  0  0  0  0  0  0  0
   10.3850    4.6575   23.2386 O   0  0  0  0  0  0  0  0  0  0  0  0
    4.2069    6.8450   20.7994 C   0  0  0  0  0  0  0  0  0  0  0  0
    3.0726   10.1043   19.8522 O   0  0  0  0  0  0  0  0  0  0  0  0
    5.5057    7.1196   21.1155 C   0  0  0  0  0  0  0  0  0  0  0  0
    7.0367   11.0229   21.9948 O   0  0  0  0  0  0  0  0  0  0  0  0
  1  8  4  0
  1 12  4  0
  2  9  1  0
  2 11  4  0
  2 25  4  0
  3 12  4  0
  3 14  1  0
  3 23  4  0
  4 13  4  0
  4 21  4  0
  4 24  1  0
  5  8  4  0
  5 23  4  0
  6 18  2  0
  7 15  4  0
  7 16  1  0
  7 27  4  0
  8 18  1  0
 10 18  1  0
 10 20  1  0
 11 15  4  0
 11 26  1  0
 13 22  4  0
 16 19  1  0
 16 20  2  0
 17 19  4  0
 17 21  4  0
 19 22  4  0
 20 28  1  0
 25 27  4  0
M  END
$$$$

 Created by Python create_sdf_string function

 28 30  0  0  0  0  0  0  0  0999 V2000
   11.4592   11.2893   18.7941 C   0  0  0  0  0  0  0  0  0  0  0  0
    3.4202    7.9009   20.3866 C   0  0  0  0  0  0  0  0  0  0  0  0
   13.5280   10.3522   19.3586 C   0  0  0  0  0  0  0  0  0  0  0  0
    9.6923    5.6468   22.7891 C   0  0  0  0  0  0  0  0  0  0  0  0
   11.7756   10.2554   20.8841 N   0  0  0  0  0  0  0  0  0  0  0  0
    8.9876   11.9370   19.8757 O   0  0  0  0  0  0  0  0  0  0  0  0
    6.0167    8.4478   21.1089 C   0  0  0  0  0  0  0  0  0  0  0  0
   11.0002   10.8890   20.0262 C   0  0  0  0  0  0  0  0  0  0  0  0
    2.1721    7.7393   20.0315 O   0  0  0  0  0  0  0  0  0  0  0  0
    9.1107   10.3880   21.3769 N   0  0  0  0  0  0  0  0  0  0  0  0
    3.9102    9.2008   20.3124 C   0  0  0  0  0  0  0  0  0  0  0  0
   12.7292   10.9960   18.4597 C   0  0  0  0  0  0  0  0  0  0  0  0
    9.3798    6.6793   23.6625 C   0  0  0  0  0  0  0  0  0  0  0  0
   14.7425   10.0739   19.0802 O   0  0  0  0  0  0  0  0  0  0  0  0
    5.1894    9.4673   20.7118 C   0  0  0  0  0  0  0  0  0  0  0  0
    7.3773    8.8224   21.4870 C   0  0  0  0  0  0  0  0  0  0  0  0
    8.4391    6.6439   21.0235 C   0  0  0  0  0  0  0  0  0  0  0  0
    9.6494   11.1353   20.4167 C   0  0  0  0  0  0  0  0  0  0  0  0
    8.1431    7.6829   21.9046 C   0  0  0  0  0  0  0  0  0  0  0  0
    7.7796   10.1314   21.5115 N   0  0  0  0  0  0  0  0  0  0  0  0
    9.2768    5.6183   21.4437 C   0  0  0  0  0  0  0  0  0  0  0  0
    8.6315    7.7322   23.1768 C   0  0  0  0  0  0  0  0  0  0  0  0
   13.0537    9.9821   20.5781 C   0  0  0  0  0  0  0  0  0  0  0  0
   10.3850    4.6575   23.2386 O   0  0  0  0  0  0  0  0  0  0  0  0
    4.2069    6.8450   20.7994 C   0  0  0  0  0  0  0  0  0  0  0  0
    3.0726   10.1043   19.8522 O   0  0  0  0  0  0  0  0  0  0  0  0
    5.5057    7.1196   21.1155 C   0  0  0  0  0  0  0  0  0  0  0  0
    7.0367   11.0229   21.9948 O   0  0  0  0  0  0  0  0  0  0  0  0
  1  8  4  0
  1 12  4  0
  2  9  1  0
  2 11  4  0
  2 25  4  0
  3 12  4  0
  3 14  1  0
  3 23  4  0
  4 13  4  0
  4 21  4  0
  4 24  1  0
  5  8  4  0
  5 23  4  0
  6 18  2  0
  7 15  4  0
  7 16  1  0
  7 27  4  0
  8 18  1  0
 10 18  1  0
 10 20  1  0
 11 15  4  0
 11 26  1  0
 13 22  4  0
 16 19  1  0
 16 20  2  0
 17 19  4  0
 17 21  4  0
 19 22  4  0
 20 28  1  0
 25 27  4  0
M  END
$$$$

 Created by Python create_sdf_string function

 28 30  0  0  0  0  0  0  0  0999 V2000
   11.4592   11.2893   18.7941 C   0  0  0  0  0  0  0  0  0  0  0  0
    3.4202    7.9009   20.3866 C   0  0  0  0  0  0  0  0  0  0  0  0
   13.5280   10.3522   19.3586 C   0  0  0  0  0  0  0  0  0  0  0  0
    9.6923    5.6468   22.7891 C   0  0  0  0  0  0  0  0  0  0  0  0
   11.7756   10.2554   20.8841 N   0  0  0  0  0  0  0  0  0  0  0  0
    8.9876   11.9370   19.8757 O   0  0  0  0  0  0  0  0  0  0  0  0
    6.0167    8.4478   21.1089 C   0  0  0  0  0  0  0  0  0  0  0  0
   11.0002   10.8890   20.0262 C   0  0  0  0  0  0  0  0  0  0  0  0
    2.1721    7.7393   20.0315 O   0  0  0  0  0  0  0  0  0  0  0  0
    9.1107   10.3880   21.3769 N   0  0  0  0  0  0  0  0  0  0  0  0
    3.9102    9.2008   20.3124 C   0  0  0  0  0  0  0  0  0  0  0  0
   12.7292   10.9960   18.4597 C   0  0  0  0  0  0  0  0  0  0  0  0
    9.3798    6.6793   23.6625 C   0  0  0  0  0  0  0  0  0  0  0  0
   14.7425   10.0739   19.0802 O   0  0  0  0  0  0  0  0  0  0  0  0
    5.1894    9.4673   20.7118 C   0  0  0  0  0  0  0  0  0  0  0  0
    7.3773    8.8224   21.4870 C   0  0  0  0  0  0  0  0  0  0  0  0
    8.4391    6.6439   21.0235 C   0  0  0  0  0  0  0  0  0  0  0  0
    9.6494   11.1353   20.4167 C   0  0  0  0  0  0  0  0  0  0  0  0
    8.1431    7.6829   21.9046 C   0  0  0  0  0  0  0  0  0  0  0  0
    7.7796   10.1314   21.5115 N   0  0  0  0  0  0  0  0  0  0  0  0
    9.2768    5.6183   21.4437 C   0  0  0  0  0  0  0  0  0  0  0  0
    8.6315    7.7322   23.1768 C   0  0  0  0  0  0  0  0  0  0  0  0
   13.0537    9.9821   20.5781 C   0  0  0  0  0  0  0  0  0  0  0  0
   10.3850    4.6575   23.2386 O   0  0  0  0  0  0  0  0  0  0  0  0
    4.2069    6.8450   20.7994 C   0  0  0  0  0  0  0  0  0  0  0  0
    3.0726   10.1043   19.8522 O   0  0  0  0  0  0  0  0  0  0  0  0
    5.5057    7.1196   21.1155 C   0  0  0  0  0  0  0  0  0  0  0  0
    7.0367   11.0229   21.9948 O   0  0  0  0  0  0  0  0  0  0  0  0
  1  8  4  0
  1 12  4  0
  2  9  1  0
  2 11  4  0
  2 25  4  0
  3 12  4  0
  3 14  1  0
  3 23  4  0
  4 13  4  0
  4 21  4  0
  4 24  1  0
  5  8  4  0
  5 23  4  0
  6 18  2  0
  7 15  4  0
  7 16  1  0
  7 27  4  0
  8 18  1  0
 10 18  1  0
 10 20  1  0
 11 15  4  0
 11 26  1  0
 13 22  4  0
 16 19  1  0
 16 20  2  0
 17 19  4  0
 17 21  4  0
 19 22  4  0
 20 28  1  0
 25 27  4  0
M  END
$$$$

 Created by Python create_sdf_string function

 28 30  0  0  0  0  0  0  0  0999 V2000
   11.4592   11.2893   18.7941 C   0  0  0  0  0  0  0  0  0  0  0  0
    3.4202    7.9009   20.3866 C   0  0  0  0  0  0  0  0  0  0  0  0
   13.5280   10.3522   19.3586 C   0  0  0  0  0  0  0  0  0  0  0  0
    9.6923    5.6468   22.7891 C   0  0  0  0  0  0  0  0  0  0  0  0
   11.7756   10.2554   20.8841 N   0  0  0  0  0  0  0  0  0  0  0  0
    8.9876   11.9370   19.8757 O   0  0  0  0  0  0  0  0  0  0  0  0
    6.0167    8.4478   21.1089 C   0  0  0  0  0  0  0  0  0  0  0  0
   11.0002   10.8890   20.0262 C   0  0  0  0  0  0  0  0  0  0  0  0
    2.1721    7.7393   20.0315 O   0  0  0  0  0  0  0  0  0  0  0  0
    9.1107   10.3880   21.3769 N   0  0  0  0  0  0  0  0  0  0  0  0
    3.9102    9.2008   20.3124 C   0  0  0  0  0  0  0  0  0  0  0  0
   12.7292   10.9960   18.4597 C   0  0  0  0  0  0  0  0  0  0  0  0
    9.3798    6.6793   23.6625 C   0  0  0  0  0  0  0  0  0  0  0  0
   14.7425   10.0739   19.0802 O   0  0  0  0  0  0  0  0  0  0  0  0
    5.1894    9.4673   20.7118 C   0  0  0  0  0  0  0  0  0  0  0  0
    7.3773    8.8224   21.4870 C   0  0  0  0  0  0  0  0  0  0  0  0
    8.4391    6.6439   21.0235 C   0  0  0  0  0  0  0  0  0  0  0  0
    9.6494   11.1353   20.4167 C   0  0  0  0  0  0  0  0  0  0  0  0
    8.1431    7.6829   21.9046 C   0  0  0  0  0  0  0  0  0  0  0  0
    7.7796   10.1314   21.5115 N   0  0  0  0  0  0  0  0  0  0  0  0
    9.2768    5.6183   21.4437 C   0  0  0  0  0  0  0  0  0  0  0  0
    8.6315    7.7322   23.1768 C   0  0  0  0  0  0  0  0  0  0  0  0
   13.0537    9.9821   20.5781 C   0  0  0  0  0  0  0  0  0  0  0  0
   10.3850    4.6575   23.2386 O   0  0  0  0  0  0  0  0  0  0  0  0
    4.2069    6.8450   20.7994 C   0  0  0  0  0  0  0  0  0  0  0  0
    3.0726   10.1043   19.8522 O   0  0  0  0  0  0  0  0  0  0  0  0
    5.5057    7.1196   21.1155 C   0  0  0  0  0  0  0  0  0  0  0  0
    7.0367   11.0229   21.9948 O   0  0  0  0  0  0  0  0  0  0  0  0
  1  8  4  0
  1 12  4  0
  2  9  1  0
  2 11  4  0
  2 25  4  0
  3 12  4  0
  3 14  1  0
  3 23  4  0
  4 13  4  0
  4 21  4  0
  4 24  1  0
  5  8  4  0
  5 23  4  0
  6 18  2  0
  7 15  4  0
  7 16  1  0
  7 27  4  0
  8 18  1  0
 10 18  1  0
 10 20  1  0
 11 15  4  0
 11 26  1  0
 13 22  4  0
 16 19  1  0
 16 20  2  0
 17 19  4  0
 17 21  4  0
 19 22  4  0
 20 28  1  0
 25 27  4  0
M  END
$$$$

 Created by Python create_sdf_string function

 28 30  0  0  0  0  0  0  0  0999 V2000
   11.4592   11.2893   18.7941 C   0  0  0  0  0  0  0  0  0  0  0  0
    3.4202    7.9009   20.3866 C   0  0  0  0  0  0  0  0  0  0  0  0
   13.5280   10.3522   19.3586 C   0  0  0  0  0  0  0  0  0  0  0  0
    9.6923    5.6468   22.7891 C   0  0  0  0  0  0  0  0  0  0  0  0
   11.7756   10.2554   20.8841 N   0  0  0  0  0  0  0  0  0  0  0  0
    8.9876   11.9370   19.8757 O   0  0  0  0  0  0  0  0  0  0  0  0
    6.0167    8.4478   21.1089 C   0  0  0  0  0  0  0  0  0  0  0  0
   11.0002   10.8890   20.0262 C   0  0  0  0  0  0  0  0  0  0  0  0
    2.1721    7.7393   20.0315 O   0  0  0  0  0  0  0  0  0  0  0  0
    9.1107   10.3880   21.3769 N   0  0  0  0  0  0  0  0  0  0  0  0
    3.9102    9.2008   20.3124 C   0  0  0  0  0  0  0  0  0  0  0  0
   12.7292   10.9960   18.4597 C   0  0  0  0  0  0  0  0  0  0  0  0
    9.3798    6.6793   23.6625 C   0  0  0  0  0  0  0  0  0  0  0  0
   14.7425   10.0739   19.0802 O   0  0  0  0  0  0  0  0  0  0  0  0
    5.1894    9.4673   20.7118 C   0  0  0  0  0  0  0  0  0  0  0  0
    7.3773    8.8224   21.4870 C   0  0  0  0  0  0  0  0  0  0  0  0
    8.4391    6.6439   21.0235 C   0  0  0  0  0  0  0  0  0  0  0  0
    9.6494   11.1353   20.4167 C   0  0  0  0  0  0  0  0  0  0  0  0
    8.1431    7.6829   21.9046 C   0  0  0  0  0  0  0  0  0  0  0  0
    7.7796   10.1314   21.5115 N   0  0  0  0  0  0  0  0  0  0  0  0
    9.2768    5.6183   21.4437 C   0  0  0  0  0  0  0  0  0  0  0  0
    8.6315    7.7322   23.1768 C   0  0  0  0  0  0  0  0  0  0  0  0
   13.0537    9.9821   20.5781 C   0  0  0  0  0  0  0  0  0  0  0  0
   10.3850    4.6575   23.2386 O   0  0  0  0  0  0  0  0  0  0  0  0
    4.2069    6.8450   20.7994 C   0  0  0  0  0  0  0  0  0  0  0  0
    3.0726   10.1043   19.8522 O   0  0  0  0  0  0  0  0  0  0  0  0
    5.5057    7.1196   21.1155 C   0  0  0  0  0  0  0  0  0  0  0  0
    7.0367   11.0229   21.9948 O   0  0  0  0  0  0  0  0  0  0  0  0
  1  8  4  0
  1 12  4  0
  2  9  1  0
  2 11  4  0
  2 25  4  0
  3 12  4  0
  3 14  1  0
  3 23  4  0
  4 13  4  0
  4 21  4  0
  4 24  1  0
  5  8  4  0
  5 23  4  0
  6 18  2  0
  7 15  4  0
  7 16  1  0
  7 27  4  0
  8 18  1  0
 10 18  1  0
 10 20  1  0
 11 15  4  0
 11 26  1  0
 13 22  4  0
 16 19  1  0
 16 20  2  0
 17 19  4  0
 17 21  4  0
 19 22  4  0
 20 28  1  0
 25 27  4  0
M  END
$$$$

 Created by Python create_sdf_string function

 28 30  0  0  0  0  0  0  0  0999 V2000
   11.4592   11.2893   18.7941 C   0  0  0  0  0  0  0  0  0  0  0  0
    3.4202    7.9009   20.3866 C   0  0  0  0  0  0  0  0  0  0  0  0
   13.5280   10.3522   19.3586 C   0  0  0  0  0  0  0  0  0  0  0  0
    9.6923    5.6468   22.7891 C   0  0  0  0  0  0  0  0  0  0  0  0
   11.7756   10.2554   20.8841 N   0  0  0  0  0  0  0  0  0  0  0  0
    8.9876   11.9370   19.8757 O   0  0  0  0  0  0  0  0  0  0  0  0
    6.0167    8.4478   21.1089 C   0  0  0  0  0  0  0  0  0  0  0  0
   11.0002   10.8890   20.0262 C   0  0  0  0  0  0  0  0  0  0  0  0
    2.1721    7.7393   20.0315 O   0  0  0  0  0  0  0  0  0  0  0  0
    9.1107   10.3880   21.3769 N   0  0  0  0  0  0  0  0  0  0  0  0
    3.9102    9.2008   20.3124 C   0  0  0  0  0  0  0  0  0  0  0  0
   12.7292   10.9960   18.4597 C   0  0  0  0  0  0  0  0  0  0  0  0
    9.3798    6.6793   23.6625 C   0  0  0  0  0  0  0  0  0  0  0  0
   14.7425   10.0739   19.0802 O   0  0  0  0  0  0  0  0  0  0  0  0
    5.1894    9.4673   20.7118 C   0  0  0  0  0  0  0  0  0  0  0  0
    7.3773    8.8224   21.4870 C   0  0  0  0  0  0  0  0  0  0  0  0
    8.4391    6.6439   21.0235 C   0  0  0  0  0  0  0  0  0  0  0  0
    9.6494   11.1353   20.4167 C   0  0  0  0  0  0  0  0  0  0  0  0
    8.1431    7.6829   21.9046 C   0  0  0  0  0  0  0  0  0  0  0  0
    7.7796   10.1314   21.5115 N   0  0  0  0  0  0  0  0  0  0  0  0
    9.2768    5.6183   21.4437 C   0  0  0  0  0  0  0  0  0  0  0  0
    8.6315    7.7322   23.1768 C   0  0  0  0  0  0  0  0  0  0  0  0
   13.0537    9.9821   20.5781 C   0  0  0  0  0  0  0  0  0  0  0  0
   10.3850    4.6575   23.2386 O   0  0  0  0  0  0  0  0  0  0  0  0
    4.2069    6.8450   20.7994 C   0  0  0  0  0  0  0  0  0  0  0  0
    3.0726   10.1043   19.8522 O   0  0  0  0  0  0  0  0  0  0  0  0
    5.5057    7.1196   21.1155 C   0  0  0  0  0  0  0  0  0  0  0  0
    7.0367   11.0229   21.9948 O   0  0  0  0  0  0  0  0  0  0  0  0
  1  8  4  0
  1 12  4  0
  2  9  1  0
  2 11  4  0
  2 25  4  0
  3 12  4  0
  3 14  1  0
  3 23  4  0
  4 13  4  0
  4 21  4  0
  4 24  1  0
  5  8  4  0
  5 23  4  0
  6 18  2  0
  7 15  4  0
  7 16  1  0
  7 27  4  0
  8 18  1  0
 10 18  1  0
 10 20  1  0
 11 15  4  0
 11 26  1  0
 13 22  4  0
 16 19  1  0
 16 20  2  0
 17 19  4  0
 17 21  4  0
 19 22  4  0
 20 28  1  0
 25 27  4  0
M  END
$$$$

 Created by Python create_sdf_string function

 28 30  0  0  0  0  0  0  0  0999 V2000
   11.4592   11.2893   18.7941 C   0  0  0  0  0  0  0  0  0  0  0  0
    3.4202    7.9009   20.3866 C   0  0  0  0  0  0  0  0  0  0  0  0
   13.5280   10.3522   19.3586 C   0  0  0  0  0  0  0  0  0  0  0  0
    9.6923    5.6468   22.7891 C   0  0  0  0  0  0  0  0  0  0  0  0
   11.7756   10.2554   20.8841 N   0  0  0  0  0  0  0  0  0  0  0  0
    8.9876   11.9370   19.8757 O   0  0  0  0  0  0  0  0  0  0  0  0
    6.0167    8.4478   21.1089 C   0  0  0  0  0  0  0  0  0  0  0  0
   11.0002   10.8890   20.0262 C   0  0  0  0  0  0  0  0  0  0  0  0
    2.1721    7.7393   20.0315 O   0  0  0  0  0  0  0  0  0  0  0  0
    9.1107   10.3880   21.3769 N   0  0  0  0  0  0  0  0  0  0  0  0
    3.9102    9.2008   20.3124 C   0  0  0  0  0  0  0  0  0  0  0  0
   12.7292   10.9960   18.4597 C   0  0  0  0  0  0  0  0  0  0  0  0
    9.3798    6.6793   23.6625 C   0  0  0  0  0  0  0  0  0  0  0  0
   14.7425   10.0739   19.0802 O   0  0  0  0  0  0  0  0  0  0  0  0
    5.1894    9.4673   20.7118 C   0  0  0  0  0  0  0  0  0  0  0  0
    7.3773    8.8224   21.4870 C   0  0  0  0  0  0  0  0  0  0  0  0
    8.4391    6.6439   21.0235 C   0  0  0  0  0  0  0  0  0  0  0  0
    9.6494   11.1353   20.4167 C   0  0  0  0  0  0  0  0  0  0  0  0
    8.1431    7.6829   21.9046 C   0  0  0  0  0  0  0  0  0  0  0  0
    7.7796   10.1314   21.5115 N   0  0  0  0  0  0  0  0  0  0  0  0
    9.2768    5.6183   21.4437 C   0  0  0  0  0  0  0  0  0  0  0  0
    8.6315    7.7322   23.1768 C   0  0  0  0  0  0  0  0  0  0  0  0
   13.0537    9.9821   20.5781 C   0  0  0  0  0  0  0  0  0  0  0  0
   10.3850    4.6575   23.2386 O   0  0  0  0  0  0  0  0  0  0  0  0
    4.2069    6.8450   20.7994 C   0  0  0  0  0  0  0  0  0  0  0  0
    3.0726   10.1043   19.8522 O   0  0  0  0  0  0  0  0  0  0  0  0
    5.5057    7.1196   21.1155 C   0  0  0  0  0  0  0  0  0  0  0  0
    7.0367   11.0229   21.9948 O   0  0  0  0  0  0  0  0  0  0  0  0
  1  8  4  0
  1 12  4  0
  2  9  1  0
  2 11  4  0
  2 25  4  0
  3 12  4  0
  3 14  1  0
  3 23  4  0
  4 13  4  0
  4 21  4  0
  4 24  1  0
  5  8  4  0
  5 23  4  0
  6 18  2  0
  7 15  4  0
  7 16  1  0
  7 27  4  0
  8 18  1  0
 10 18  1  0
 10 20  1  0
 11 15  4  0
 11 26  1  0
 13 22  4  0
 16 19  1  0
 16 20  2  0
 17 19  4  0
 17 21  4  0
 19 22  4  0
 20 28  1  0
 25 27  4  0
M  END
$$$$

 Created by Python create_sdf_string function

 28 30  0  0  0  0  0  0  0  0999 V2000
   11.4592   11.2893   18.7941 C   0  0  0  0  0  0  0  0  0  0  0  0
    3.4202    7.9009   20.3866 C   0  0  0  0  0  0  0  0  0  0  0  0
   13.5280   10.3522   19.3586 C   0  0  0  0  0  0  0  0  0  0  0  0
    9.6923    5.6468   22.7891 C   0  0  0  0  0  0  0  0  0  0  0  0
   11.7756   10.2554   20.8841 N   0  0  0  0  0  0  0  0  0  0  0  0
    8.9876   11.9370   19.8757 O   0  0  0  0  0  0  0  0  0  0  0  0
    6.0167    8.4478   21.1089 C   0  0  0  0  0  0  0  0  0  0  0  0
   11.0002   10.8890   20.0262 C   0  0  0  0  0  0  0  0  0  0  0  0
    2.1721    7.7393   20.0315 O   0  0  0  0  0  0  0  0  0  0  0  0
    9.1107   10.3880   21.3769 N   0  0  0  0  0  0  0  0  0  0  0  0
    3.9102    9.2008   20.3124 C   0  0  0  0  0  0  0  0  0  0  0  0
   12.7292   10.9960   18.4597 C   0  0  0  0  0  0  0  0  0  0  0  0
    9.3798    6.6793   23.6625 C   0  0  0  0  0  0  0  0  0  0  0  0
   14.7425   10.0739   19.0802 O   0  0  0  0  0  0  0  0  0  0  0  0
    5.1894    9.4673   20.7118 C   0  0  0  0  0  0  0  0  0  0  0  0
    7.3773    8.8224   21.4870 C   0  0  0  0  0  0  0  0  0  0  0  0
    8.4391    6.6439   21.0235 C   0  0  0  0  0  0  0  0  0  0  0  0
    9.6494   11.1353   20.4167 C   0  0  0  0  0  0  0  0  0  0  0  0
    8.1431    7.6829   21.9046 C   0  0  0  0  0  0  0  0  0  0  0  0
    7.7796   10.1314   21.5115 N   0  0  0  0  0  0  0  0  0  0  0  0
    9.2768    5.6183   21.4437 C   0  0  0  0  0  0  0  0  0  0  0  0
    8.6315    7.7322   23.1768 C   0  0  0  0  0  0  0  0  0  0  0  0
   13.0537    9.9821   20.5781 C   0  0  0  0  0  0  0  0  0  0  0  0
   10.3850    4.6575   23.2386 O   0  0  0  0  0  0  0  0  0  0  0  0
    4.2069    6.8450   20.7994 C   0  0  0  0  0  0  0  0  0  0  0  0
    3.0726   10.1043   19.8522 O   0  0  0  0  0  0  0  0  0  0  0  0
    5.5057    7.1196   21.1155 C   0  0  0  0  0  0  0  0  0  0  0  0
    7.0367   11.0229   21.9948 O   0  0  0  0  0  0  0  0  0  0  0  0
  1  8  4  0
  1 12  4  0
  2  9  1  0
  2 11  4  0
  2 25  4  0
  3 12  4  0
  3 14  1  0
  3 23  4  0
  4 13  4  0
  4 21  4  0
  4 24  1  0
  5  8  4  0
  5 23  4  0
  6 18  2  0
  7 15  4  0
  7 16  1  0
  7 27  4  0
  8 18  1  0
 10 18  1  0
 10 20  1  0
 11 15  4  0
 11 26  1  0
 13 22  4  0
 16 19  1  0
 16 20  2  0
 17 19  4  0
 17 21  4  0
 19 22  4  0
 20 28  1  0
 25 27  4  0
M  END
$$$$

 Created by Python create_sdf_string function

 28 30  0  0  0  0  0  0  0  0999 V2000
   11.4592   11.2893   18.7941 C   0  0  0  0  0  0  0  0  0  0  0  0
    3.4202    7.9009   20.3866 C   0  0  0  0  0  0  0  0  0  0  0  0
   13.5280   10.3522   19.3586 C   0  0  0  0  0  0  0  0  0  0  0  0
    9.6923    5.6468   22.7891 C   0  0  0  0  0  0  0  0  0  0  0  0
   11.7756   10.2554   20.8841 N   0  0  0  0  0  0  0  0  0  0  0  0
    8.9876   11.9370   19.8757 O   0  0  0  0  0  0  0  0  0  0  0  0
    6.0167    8.4478   21.1089 C   0  0  0  0  0  0  0  0  0  0  0  0
   11.0002   10.8890   20.0262 C   0  0  0  0  0  0  0  0  0  0  0  0
    2.1721    7.7393   20.0315 O   0  0  0  0  0  0  0  0  0  0  0  0
    9.1107   10.3880   21.3769 N   0  0  0  0  0  0  0  0  0  0  0  0
    3.9102    9.2008   20.3124 C   0  0  0  0  0  0  0  0  0  0  0  0
   12.7292   10.9960   18.4597 C   0  0  0  0  0  0  0  0  0  0  0  0
    9.3798    6.6793   23.6625 C   0  0  0  0  0  0  0  0  0  0  0  0
   14.7425   10.0739   19.0802 O   0  0  0  0  0  0  0  0  0  0  0  0
    5.1894    9.4673   20.7118 C   0  0  0  0  0  0  0  0  0  0  0  0
    7.3773    8.8224   21.4870 C   0  0  0  0  0  0  0  0  0  0  0  0
    8.4391    6.6439   21.0235 C   0  0  0  0  0  0  0  0  0  0  0  0
    9.6494   11.1353   20.4167 C   0  0  0  0  0  0  0  0  0  0  0  0
    8.1431    7.6829   21.9046 C   0  0  0  0  0  0  0  0  0  0  0  0
    7.7796   10.1314   21.5115 N   0  0  0  0  0  0  0  0  0  0  0  0
    9.2768    5.6183   21.4437 C   0  0  0  0  0  0  0  0  0  0  0  0
    8.6315    7.7322   23.1768 C   0  0  0  0  0  0  0  0  0  0  0  0
   13.0537    9.9821   20.5781 C   0  0  0  0  0  0  0  0  0  0  0  0
   10.3850    4.6575   23.2386 O   0  0  0  0  0  0  0  0  0  0  0  0
    4.2069    6.8450   20.7994 C   0  0  0  0  0  0  0  0  0  0  0  0
    3.0726   10.1043   19.8522 O   0  0  0  0  0  0  0  0  0  0  0  0
    5.5057    7.1196   21.1155 C   0  0  0  0  0  0  0  0  0  0  0  0
    7.0367   11.0229   21.9948 O   0  0  0  0  0  0  0  0  0  0  0  0
  1  8  4  0
  1 12  4  0
  2  9  1  0
  2 11  4  0
  2 25  4  0
  3 12  4  0
  3 14  1  0
  3 23  4  0
  4 13  4  0
  4 21  4  0
  4 24  1  0
  5  8  4  0
  5 23  4  0
  6 18  2  0
  7 15  4  0
  7 16  1  0
  7 27  4  0
  8 18  1  0
 10 18  1  0
 10 20  1  0
 11 15  4  0
 11 26  1  0
 13 22  4  0
 16 19  1  0
 16 20  2  0
 17 19  4  0
 17 21  4  0
 19 22  4  0
 20 28  1  0
 25 27  4  0
M  END
$$$$

 Created by Python create_sdf_string function

 28 30  0  0  0  0  0  0  0  0999 V2000
   11.4592   11.2893   18.7941 C   0  0  0  0  0  0  0  0  0  0  0  0
    3.4202    7.9009   20.3866 C   0  0  0  0  0  0  0  0  0  0  0  0
   13.5280   10.3522   19.3586 C   0  0  0  0  0  0  0  0  0  0  0  0
    9.6923    5.6468   22.7891 C   0  0  0  0  0  0  0  0  0  0  0  0
   11.7756   10.2554   20.8841 N   0  0  0  0  0  0  0  0  0  0  0  0
    8.9876   11.9370   19.8757 O   0  0  0  0  0  0  0  0  0  0  0  0
    6.0167    8.4478   21.1089 C   0  0  0  0  0  0  0  0  0  0  0  0
   11.0002   10.8890   20.0262 C   0  0  0  0  0  0  0  0  0  0  0  0
    2.1721    7.7393   20.0315 O   0  0  0  0  0  0  0  0  0  0  0  0
    9.1107   10.3880   21.3769 N   0  0  0  0  0  0  0  0  0  0  0  0
    3.9102    9.2008   20.3124 C   0  0  0  0  0  0  0  0  0  0  0  0
   12.7292   10.9960   18.4597 C   0  0  0  0  0  0  0  0  0  0  0  0
    9.3798    6.6793   23.6625 C   0  0  0  0  0  0  0  0  0  0  0  0
   14.7425   10.0739   19.0802 O   0  0  0  0  0  0  0  0  0  0  0  0
    5.1894    9.4673   20.7118 C   0  0  0  0  0  0  0  0  0  0  0  0
    7.3773    8.8224   21.4870 C   0  0  0  0  0  0  0  0  0  0  0  0
    8.4391    6.6439   21.0235 C   0  0  0  0  0  0  0  0  0  0  0  0
    9.6494   11.1353   20.4167 C   0  0  0  0  0  0  0  0  0  0  0  0
    8.1431    7.6829   21.9046 C   0  0  0  0  0  0  0  0  0  0  0  0
    7.7796   10.1314   21.5115 N   0  0  0  0  0  0  0  0  0  0  0  0
    9.2768    5.6183   21.4437 C   0  0  0  0  0  0  0  0  0  0  0  0
    8.6315    7.7322   23.1768 C   0  0  0  0  0  0  0  0  0  0  0  0
   13.0537    9.9821   20.5781 C   0  0  0  0  0  0  0  0  0  0  0  0
   10.3850    4.6575   23.2386 O   0  0  0  0  0  0  0  0  0  0  0  0
    4.2069    6.8450   20.7994 C   0  0  0  0  0  0  0  0  0  0  0  0
    3.0726   10.1043   19.8522 O   0  0  0  0  0  0  0  0  0  0  0  0
    5.5057    7.1196   21.1155 C   0  0  0  0  0  0  0  0  0  0  0  0
    7.0367   11.0229   21.9948 O   0  0  0  0  0  0  0  0  0  0  0  0
  1  8  4  0
  1 12  4  0
  2  9  1  0
  2 11  4  0
  2 25  4  0
  3 12  4  0
  3 14  1  0
  3 23  4  0
  4 13  4  0
  4 21  4  0
  4 24  1  0
  5  8  4  0
  5 23  4  0
  6 18  2  0
  7 15  4  0
  7 16  1  0
  7 27  4  0
  8 18  1  0
 10 18  1  0
 10 20  1  0
 11 15  4  0
 11 26  1  0
 13 22  4  0
 16 19  1  0
 16 20  2  0
 17 19  4  0
 17 21  4  0
 19 22  4  0
 20 28  1  0
 25 27  4  0
M  END
$$$$

 Created by Python create_sdf_string function

 28 30  0  0  0  0  0  0  0  0999 V2000
   11.4592   11.2893   18.7941 C   0  0  0  0  0  0  0  0  0  0  0  0
    3.4202    7.9009   20.3866 C   0  0  0  0  0  0  0  0  0  0  0  0
   13.5280   10.3522   19.3586 C   0  0  0  0  0  0  0  0  0  0  0  0
    9.6923    5.6468   22.7891 C   0  0  0  0  0  0  0  0  0  0  0  0
   11.7756   10.2554   20.8841 N   0  0  0  0  0  0  0  0  0  0  0  0
    8.9876   11.9370   19.8757 O   0  0  0  0  0  0  0  0  0  0  0  0
    6.0167    8.4478   21.1089 C   0  0  0  0  0  0  0  0  0  0  0  0
   11.0002   10.8890   20.0262 C   0  0  0  0  0  0  0  0  0  0  0  0
    2.1721    7.7393   20.0315 O   0  0  0  0  0  0  0  0  0  0  0  0
    9.1107   10.3880   21.3769 N   0  0  0  0  0  0  0  0  0  0  0  0
    3.9102    9.2008   20.3124 C   0  0  0  0  0  0  0  0  0  0  0  0
   12.7292   10.9960   18.4597 C   0  0  0  0  0  0  0  0  0  0  0  0
    9.3798    6.6793   23.6625 C   0  0  0  0  0  0  0  0  0  0  0  0
   14.7425   10.0739   19.0802 O   0  0  0  0  0  0  0  0  0  0  0  0
    5.1894    9.4673   20.7118 C   0  0  0  0  0  0  0  0  0  0  0  0
    7.3773    8.8224   21.4870 C   0  0  0  0  0  0  0  0  0  0  0  0
    8.4391    6.6439   21.0235 C   0  0  0  0  0  0  0  0  0  0  0  0
    9.6494   11.1353   20.4167 C   0  0  0  0  0  0  0  0  0  0  0  0
    8.1431    7.6829   21.9046 C   0  0  0  0  0  0  0  0  0  0  0  0
    7.7796   10.1314   21.5115 N   0  0  0  0  0  0  0  0  0  0  0  0
    9.2768    5.6183   21.4437 C   0  0  0  0  0  0  0  0  0  0  0  0
    8.6315    7.7322   23.1768 C   0  0  0  0  0  0  0  0  0  0  0  0
   13.0537    9.9821   20.5781 C   0  0  0  0  0  0  0  0  0  0  0  0
   10.3850    4.6575   23.2386 O   0  0  0  0  0  0  0  0  0  0  0  0
    4.2069    6.8450   20.7994 C   0  0  0  0  0  0  0  0  0  0  0  0
    3.0726   10.1043   19.8522 O   0  0  0  0  0  0  0  0  0  0  0  0
    5.5057    7.1196   21.1155 C   0  0  0  0  0  0  0  0  0  0  0  0
    7.0367   11.0229   21.9948 O   0  0  0  0  0  0  0  0  0  0  0  0
  1  8  4  0
  1 12  4  0
  2  9  1  0
  2 11  4  0
  2 25  4  0
  3 12  4  0
  3 14  1  0
  3 23  4  0
  4 13  4  0
  4 21  4  0
  4 24  1  0
  5  8  4  0
  5 23  4  0
  6 18  2  0
  7 15  4  0
  7 16  1  0
  7 27  4  0
  8 18  1  0
 10 18  1  0
 10 20  1  0
 11 15  4  0
 11 26  1  0
 13 22  4  0
 16 19  1  0
 16 20  2  0
 17 19  4  0
 17 21  4  0
 19 22  4  0
 20 28  1  0
 25 27  4  0
M  END
$$$$

 Created by Python create_sdf_string function

 28 30  0  0  0  0  0  0  0  0999 V2000
   11.4592   11.2893   18.7941 C   0  0  0  0  0  0  0  0  0  0  0  0
    3.4202    7.9009   20.3866 C   0  0  0  0  0  0  0  0  0  0  0  0
   13.5280   10.3522   19.3586 C   0  0  0  0  0  0  0  0  0  0  0  0
    9.6923    5.6468   22.7891 C   0  0  0  0  0  0  0  0  0  0  0  0
   11.7756   10.2554   20.8841 N   0  0  0  0  0  0  0  0  0  0  0  0
    8.9876   11.9370   19.8757 O   0  0  0  0  0  0  0  0  0  0  0  0
    6.0167    8.4478   21.1089 C   0  0  0  0  0  0  0  0  0  0  0  0
   11.0002   10.8890   20.0262 C   0  0  0  0  0  0  0  0  0  0  0  0
    2.1721    7.7393   20.0315 O   0  0  0  0  0  0  0  0  0  0  0  0
    9.1107   10.3880   21.3769 N   0  0  0  0  0  0  0  0  0  0  0  0
    3.9102    9.2008   20.3124 C   0  0  0  0  0  0  0  0  0  0  0  0
   12.7292   10.9960   18.4597 C   0  0  0  0  0  0  0  0  0  0  0  0
    9.3798    6.6793   23.6625 C   0  0  0  0  0  0  0  0  0  0  0  0
   14.7425   10.0739   19.0802 O   0  0  0  0  0  0  0  0  0  0  0  0
    5.1894    9.4673   20.7118 C   0  0  0  0  0  0  0  0  0  0  0  0
    7.3773    8.8224   21.4870 C   0  0  0  0  0  0  0  0  0  0  0  0
    8.4391    6.6439   21.0235 C   0  0  0  0  0  0  0  0  0  0  0  0
    9.6494   11.1353   20.4167 C   0  0  0  0  0  0  0  0  0  0  0  0
    8.1431    7.6829   21.9046 C   0  0  0  0  0  0  0  0  0  0  0  0
    7.7796   10.1314   21.5115 N   0  0  0  0  0  0  0  0  0  0  0  0
    9.2768    5.6183   21.4437 C   0  0  0  0  0  0  0  0  0  0  0  0
    8.6315    7.7322   23.1768 C   0  0  0  0  0  0  0  0  0  0  0  0
   13.0537    9.9821   20.5781 C   0  0  0  0  0  0  0  0  0  0  0  0
   10.3850    4.6575   23.2386 O   0  0  0  0  0  0  0  0  0  0  0  0
    4.2069    6.8450   20.7994 C   0  0  0  0  0  0  0  0  0  0  0  0
    3.0726   10.1043   19.8522 O   0  0  0  0  0  0  0  0  0  0  0  0
    5.5057    7.1196   21.1155 C   0  0  0  0  0  0  0  0  0  0  0  0
    7.0367   11.0229   21.9948 O   0  0  0  0  0  0  0  0  0  0  0  0
  1  8  4  0
  1 12  4  0
  2  9  1  0
  2 11  4  0
  2 25  4  0
  3 12  4  0
  3 14  1  0
  3 23  4  0
  4 13  4  0
  4 21  4  0
  4 24  1  0
  5  8  4  0
  5 23  4  0
  6 18  2  0
  7 15  4  0
  7 16  1  0
  7 27  4  0
  8 18  1  0
 10 18  1  0
 10 20  1  0
 11 15  4  0
 11 26  1  0
 13 22  4  0
 16 19  1  0
 16 20  2  0
 17 19  4  0
 17 21  4  0
 19 22  4  0
 20 28  1  0
 25 27  4  0
M  END
$$$$

 Created by Python create_sdf_string function

 28 30  0  0  0  0  0  0  0  0999 V2000
   11.4592   11.2893   18.7941 C   0  0  0  0  0  0  0  0  0  0  0  0
    3.4202    7.9009   20.3866 C   0  0  0  0  0  0  0  0  0  0  0  0
   13.5280   10.3522   19.3586 C   0  0  0  0  0  0  0  0  0  0  0  0
    9.6923    5.6468   22.7891 C   0  0  0  0  0  0  0  0  0  0  0  0
   11.7756   10.2554   20.8841 N   0  0  0  0  0  0  0  0  0  0  0  0
    8.9876   11.9370   19.8757 O   0  0  0  0  0  0  0  0  0  0  0  0
    6.0167    8.4478   21.1089 C   0  0  0  0  0  0  0  0  0  0  0  0
   11.0002   10.8890   20.0262 C   0  0  0  0  0  0  0  0  0  0  0  0
    2.1721    7.7393   20.0315 O   0  0  0  0  0  0  0  0  0  0  0  0
    9.1107   10.3880   21.3769 N   0  0  0  0  0  0  0  0  0  0  0  0
    3.9102    9.2008   20.3124 C   0  0  0  0  0  0  0  0  0  0  0  0
   12.7292   10.9960   18.4597 C   0  0  0  0  0  0  0  0  0  0  0  0
    9.3798    6.6793   23.6625 C   0  0  0  0  0  0  0  0  0  0  0  0
   14.7425   10.0739   19.0802 O   0  0  0  0  0  0  0  0  0  0  0  0
    5.1894    9.4673   20.7118 C   0  0  0  0  0  0  0  0  0  0  0  0
    7.3773    8.8224   21.4870 C   0  0  0  0  0  0  0  0  0  0  0  0
    8.4391    6.6439   21.0235 C   0  0  0  0  0  0  0  0  0  0  0  0
    9.6494   11.1353   20.4167 C   0  0  0  0  0  0  0  0  0  0  0  0
    8.1431    7.6829   21.9046 C   0  0  0  0  0  0  0  0  0  0  0  0
    7.7796   10.1314   21.5115 N   0  0  0  0  0  0  0  0  0  0  0  0
    9.2768    5.6183   21.4437 C   0  0  0  0  0  0  0  0  0  0  0  0
    8.6315    7.7322   23.1768 C   0  0  0  0  0  0  0  0  0  0  0  0
   13.0537    9.9821   20.5781 C   0  0  0  0  0  0  0  0  0  0  0  0
   10.3850    4.6575   23.2386 O   0  0  0  0  0  0  0  0  0  0  0  0
    4.2069    6.8450   20.7994 C   0  0  0  0  0  0  0  0  0  0  0  0
    3.0726   10.1043   19.8522 O   0  0  0  0  0  0  0  0  0  0  0  0
    5.5057    7.1196   21.1155 C   0  0  0  0  0  0  0  0  0  0  0  0
    7.0367   11.0229   21.9948 O   0  0  0  0  0  0  0  0  0  0  0  0
  1  8  4  0
  1 12  4  0
  2  9  1  0
  2 11  4  0
  2 25  4  0
  3 12  4  0
  3 14  1  0
  3 23  4  0
  4 13  4  0
  4 21  4  0
  4 24  1  0
  5  8  4  0
  5 23  4  0
  6 18  2  0
  7 15  4  0
  7 16  1  0
  7 27  4  0
  8 18  1  0
 10 18  1  0
 10 20  1  0
 11 15  4  0
 11 26  1  0
 13 22  4  0
 16 19  1  0
 16 20  2  0
 17 19  4  0
 17 21  4  0
 19 22  4  0
 20 28  1  0
 25 27  4  0
M  END
$$$$

 Created by Python create_sdf_string function

 28 30  0  0  0  0  0  0  0  0999 V2000
   11.4592   11.2893   18.7941 C   0  0  0  0  0  0  0  0  0  0  0  0
    3.4202    7.9009   20.3866 C   0  0  0  0  0  0  0  0  0  0  0  0
   13.5280   10.3522   19.3586 C   0  0  0  0  0  0  0  0  0  0  0  0
    9.6923    5.6468   22.7891 C   0  0  0  0  0  0  0  0  0  0  0  0
   11.7756   10.2554   20.8841 N   0  0  0  0  0  0  0  0  0  0  0  0
    8.9876   11.9370   19.8757 O   0  0  0  0  0  0  0  0  0  0  0  0
    6.0167    8.4478   21.1089 C   0  0  0  0  0  0  0  0  0  0  0  0
   11.0002   10.8890   20.0262 C   0  0  0  0  0  0  0  0  0  0  0  0
    2.1721    7.7393   20.0315 O   0  0  0  0  0  0  0  0  0  0  0  0
    9.1107   10.3880   21.3769 N   0  0  0  0  0  0  0  0  0  0  0  0
    3.9102    9.2008   20.3124 C   0  0  0  0  0  0  0  0  0  0  0  0
   12.7292   10.9960   18.4597 C   0  0  0  0  0  0  0  0  0  0  0  0
    9.3798    6.6793   23.6625 C   0  0  0  0  0  0  0  0  0  0  0  0
   14.7425   10.0739   19.0802 O   0  0  0  0  0  0  0  0  0  0  0  0
    5.1894    9.4673   20.7118 C   0  0  0  0  0  0  0  0  0  0  0  0
    7.3773    8.8224   21.4870 C   0  0  0  0  0  0  0  0  0  0  0  0
    8.4391    6.6439   21.0235 C   0  0  0  0  0  0  0  0  0  0  0  0
    9.6494   11.1353   20.4167 C   0  0  0  0  0  0  0  0  0  0  0  0
    8.1431    7.6829   21.9046 C   0  0  0  0  0  0  0  0  0  0  0  0
    7.7796   10.1314   21.5115 N   0  0  0  0  0  0  0  0  0  0  0  0
    9.2768    5.6183   21.4437 C   0  0  0  0  0  0  0  0  0  0  0  0
    8.6315    7.7322   23.1768 C   0  0  0  0  0  0  0  0  0  0  0  0
   13.0537    9.9821   20.5781 C   0  0  0  0  0  0  0  0  0  0  0  0
   10.3850    4.6575   23.2386 O   0  0  0  0  0  0  0  0  0  0  0  0
    4.2069    6.8450   20.7994 C   0  0  0  0  0  0  0  0  0  0  0  0
    3.0726   10.1043   19.8522 O   0  0  0  0  0  0  0  0  0  0  0  0
    5.5057    7.1196   21.1155 C   0  0  0  0  0  0  0  0  0  0  0  0
    7.0367   11.0229   21.9948 O   0  0  0  0  0  0  0  0  0  0  0  0
  1  8  4  0
  1 12  4  0
  2  9  1  0
  2 11  4  0
  2 25  4  0
  3 12  4  0
  3 14  1  0
  3 23  4  0
  4 13  4  0
  4 21  4  0
  4 24  1  0
  5  8  4  0
  5 23  4  0
  6 18  2  0
  7 15  4  0
  7 16  1  0
  7 27  4  0
  8 18  1  0
 10 18  1  0
 10 20  1  0
 11 15  4  0
 11 26  1  0
 13 22  4  0
 16 19  1  0
 16 20  2  0
 17 19  4  0
 17 21  4  0
 19 22  4  0
 20 28  1  0
 25 27  4  0
M  END
$$$$

 Created by Python create_sdf_string function

 28 30  0  0  0  0  0  0  0  0999 V2000
   11.4592   11.2893   18.7941 C   0  0  0  0  0  0  0  0  0  0  0  0
    3.4202    7.9009   20.3866 C   0  0  0  0  0  0  0  0  0  0  0  0
   13.5280   10.3522   19.3586 C   0  0  0  0  0  0  0  0  0  0  0  0
    9.6923    5.6468   22.7891 C   0  0  0  0  0  0  0  0  0  0  0  0
   11.7756   10.2554   20.8841 N   0  0  0  0  0  0  0  0  0  0  0  0
    8.9876   11.9370   19.8757 O   0  0  0  0  0  0  0  0  0  0  0  0
    6.0167    8.4478   21.1089 C   0  0  0  0  0  0  0  0  0  0  0  0
   11.0002   10.8890   20.0262 C   0  0  0  0  0  0  0  0  0  0  0  0
    2.1721    7.7393   20.0315 O   0  0  0  0  0  0  0  0  0  0  0  0
    9.1107   10.3880   21.3769 N   0  0  0  0  0  0  0  0  0  0  0  0
    3.9102    9.2008   20.3124 C   0  0  0  0  0  0  0  0  0  0  0  0
   12.7292   10.9960   18.4597 C   0  0  0  0  0  0  0  0  0  0  0  0
    9.3798    6.6793   23.6625 C   0  0  0  0  0  0  0  0  0  0  0  0
   14.7425   10.0739   19.0802 O   0  0  0  0  0  0  0  0  0  0  0  0
    5.1894    9.4673   20.7118 C   0  0  0  0  0  0  0  0  0  0  0  0
    7.3773    8.8224   21.4870 C   0  0  0  0  0  0  0  0  0  0  0  0
    8.4391    6.6439   21.0235 C   0  0  0  0  0  0  0  0  0  0  0  0
    9.6494   11.1353   20.4167 C   0  0  0  0  0  0  0  0  0  0  0  0
    8.1431    7.6829   21.9046 C   0  0  0  0  0  0  0  0  0  0  0  0
    7.7796   10.1314   21.5115 N   0  0  0  0  0  0  0  0  0  0  0  0
    9.2768    5.6183   21.4437 C   0  0  0  0  0  0  0  0  0  0  0  0
    8.6315    7.7322   23.1768 C   0  0  0  0  0  0  0  0  0  0  0  0
   13.0537    9.9821   20.5781 C   0  0  0  0  0  0  0  0  0  0  0  0
   10.3850    4.6575   23.2386 O   0  0  0  0  0  0  0  0  0  0  0  0
    4.2069    6.8450   20.7994 C   0  0  0  0  0  0  0  0  0  0  0  0
    3.0726   10.1043   19.8522 O   0  0  0  0  0  0  0  0  0  0  0  0
    5.5057    7.1196   21.1155 C   0  0  0  0  0  0  0  0  0  0  0  0
    7.0367   11.0229   21.9948 O   0  0  0  0  0  0  0  0  0  0  0  0
  1  8  4  0
  1 12  4  0
  2  9  1  0
  2 11  4  0
  2 25  4  0
  3 12  4  0
  3 14  1  0
  3 23  4  0
  4 13  4  0
  4 21  4  0
  4 24  1  0
  5  8  4  0
  5 23  4  0
  6 18  2  0
  7 15  4  0
  7 16  1  0
  7 27  4  0
  8 18  1  0
 10 18  1  0
 10 20  1  0
 11 15  4  0
 11 26  1  0
 13 22  4  0
 16 19  1  0
 16 20  2  0
 17 19  4  0
 17 21  4  0
 19 22  4  0
 20 28  1  0
 25 27  4  0
M  END
$$$$

 Created by Python create_sdf_string function

 28 30  0  0  0  0  0  0  0  0999 V2000
   11.4592   11.2893   18.7941 C   0  0  0  0  0  0  0  0  0  0  0  0
    3.4202    7.9009   20.3866 C   0  0  0  0  0  0  0  0  0  0  0  0
   13.5280   10.3522   19.3586 C   0  0  0  0  0  0  0  0  0  0  0  0
    9.6923    5.6468   22.7891 C   0  0  0  0  0  0  0  0  0  0  0  0
   11.7756   10.2554   20.8841 N   0  0  0  0  0  0  0  0  0  0  0  0
    8.9876   11.9370   19.8757 O   0  0  0  0  0  0  0  0  0  0  0  0
    6.0167    8.4478   21.1089 C   0  0  0  0  0  0  0  0  0  0  0  0
   11.0002   10.8890   20.0262 C   0  0  0  0  0  0  0  0  0  0  0  0
    2.1721    7.7393   20.0315 O   0  0  0  0  0  0  0  0  0  0  0  0
    9.1107   10.3880   21.3769 N   0  0  0  0  0  0  0  0  0  0  0  0
    3.9102    9.2008   20.3124 C   0  0  0  0  0  0  0  0  0  0  0  0
   12.7292   10.9960   18.4597 C   0  0  0  0  0  0  0  0  0  0  0  0
    9.3798    6.6793   23.6625 C   0  0  0  0  0  0  0  0  0  0  0  0
   14.7425   10.0739   19.0802 O   0  0  0  0  0  0  0  0  0  0  0  0
    5.1894    9.4673   20.7118 C   0  0  0  0  0  0  0  0  0  0  0  0
    7.3773    8.8224   21.4870 C   0  0  0  0  0  0  0  0  0  0  0  0
    8.4391    6.6439   21.0235 C   0  0  0  0  0  0  0  0  0  0  0  0
    9.6494   11.1353   20.4167 C   0  0  0  0  0  0  0  0  0  0  0  0
    8.1431    7.6829   21.9046 C   0  0  0  0  0  0  0  0  0  0  0  0
    7.7796   10.1314   21.5115 N   0  0  0  0  0  0  0  0  0  0  0  0
    9.2768    5.6183   21.4437 C   0  0  0  0  0  0  0  0  0  0  0  0
    8.6315    7.7322   23.1768 C   0  0  0  0  0  0  0  0  0  0  0  0
   13.0537    9.9821   20.5781 C   0  0  0  0  0  0  0  0  0  0  0  0
   10.3850    4.6575   23.2386 O   0  0  0  0  0  0  0  0  0  0  0  0
    4.2069    6.8450   20.7994 C   0  0  0  0  0  0  0  0  0  0  0  0
    3.0726   10.1043   19.8522 O   0  0  0  0  0  0  0  0  0  0  0  0
    5.5057    7.1196   21.1155 C   0  0  0  0  0  0  0  0  0  0  0  0
    7.0367   11.0229   21.9948 O   0  0  0  0  0  0  0  0  0  0  0  0
  1  8  4  0
  1 12  4  0
  2  9  1  0
  2 11  4  0
  2 25  4  0
  3 12  4  0
  3 14  1  0
  3 23  4  0
  4 13  4  0
  4 21  4  0
  4 24  1  0
  5  8  4  0
  5 23  4  0
  6 18  2  0
  7 15  4  0
  7 16  1  0
  7 27  4  0
  8 18  1  0
 10 18  1  0
 10 20  1  0
 11 15  4  0
 11 26  1  0
 13 22  4  0
 16 19  1  0
 16 20  2  0
 17 19  4  0
 17 21  4  0
 19 22  4  0
 20 28  1  0
 25 27  4  0
M  END
$$$$

 Created by Python create_sdf_string function

 28 30  0  0  0  0  0  0  0  0999 V2000
   11.4592   11.2893   18.7941 C   0  0  0  0  0  0  0  0  0  0  0  0
    3.4202    7.9009   20.3866 C   0  0  0  0  0  0  0  0  0  0  0  0
   13.5280   10.3522   19.3586 C   0  0  0  0  0  0  0  0  0  0  0  0
    9.6923    5.6468   22.7891 C   0  0  0  0  0  0  0  0  0  0  0  0
   11.7756   10.2554   20.8841 N   0  0  0  0  0  0  0  0  0  0  0  0
    8.9876   11.9370   19.8757 O   0  0  0  0  0  0  0  0  0  0  0  0
    6.0167    8.4478   21.1089 C   0  0  0  0  0  0  0  0  0  0  0  0
   11.0002   10.8890   20.0262 C   0  0  0  0  0  0  0  0  0  0  0  0
    2.1721    7.7393   20.0315 O   0  0  0  0  0  0  0  0  0  0  0  0
    9.1107   10.3880   21.3769 N   0  0  0  0  0  0  0  0  0  0  0  0
    3.9102    9.2008   20.3124 C   0  0  0  0  0  0  0  0  0  0  0  0
   12.7292   10.9960   18.4597 C   0  0  0  0  0  0  0  0  0  0  0  0
    9.3798    6.6793   23.6625 C   0  0  0  0  0  0  0  0  0  0  0  0
   14.7425   10.0739   19.0802 O   0  0  0  0  0  0  0  0  0  0  0  0
    5.1894    9.4673   20.7118 C   0  0  0  0  0  0  0  0  0  0  0  0
    7.3773    8.8224   21.4870 C   0  0  0  0  0  0  0  0  0  0  0  0
    8.4391    6.6439   21.0235 C   0  0  0  0  0  0  0  0  0  0  0  0
    9.6494   11.1353   20.4167 C   0  0  0  0  0  0  0  0  0  0  0  0
    8.1431    7.6829   21.9046 C   0  0  0  0  0  0  0  0  0  0  0  0
    7.7796   10.1314   21.5115 N   0  0  0  0  0  0  0  0  0  0  0  0
    9.2768    5.6183   21.4437 C   0  0  0  0  0  0  0  0  0  0  0  0
    8.6315    7.7322   23.1768 C   0  0  0  0  0  0  0  0  0  0  0  0
   13.0537    9.9821   20.5781 C   0  0  0  0  0  0  0  0  0  0  0  0
   10.3850    4.6575   23.2386 O   0  0  0  0  0  0  0  0  0  0  0  0
    4.2069    6.8450   20.7994 C   0  0  0  0  0  0  0  0  0  0  0  0
    3.0726   10.1043   19.8522 O   0  0  0  0  0  0  0  0  0  0  0  0
    5.5057    7.1196   21.1155 C   0  0  0  0  0  0  0  0  0  0  0  0
    7.0367   11.0229   21.9948 O   0  0  0  0  0  0  0  0  0  0  0  0
  1  8  4  0
  1 12  4  0
  2  9  1  0
  2 11  4  0
  2 25  4  0
  3 12  4  0
  3 14  1  0
  3 23  4  0
  4 13  4  0
  4 21  4  0
  4 24  1  0
  5  8  4  0
  5 23  4  0
  6 18  2  0
  7 15  4  0
  7 16  1  0
  7 27  4  0
  8 18  1  0
 10 18  1  0
 10 20  1  0
 11 15  4  0
 11 26  1  0
 13 22  4  0
 16 19  1  0
 16 20  2  0
 17 19  4  0
 17 21  4  0
 19 22  4  0
 20 28  1  0
 25 27  4  0
M  END
$$$$

 Created by Python create_sdf_string function

 28 30  0  0  0  0  0  0  0  0999 V2000
   11.4592   11.2893   18.7941 C   0  0  0  0  0  0  0  0  0  0  0  0
    3.4202    7.9009   20.3866 C   0  0  0  0  0  0  0  0  0  0  0  0
   13.5280   10.3522   19.3586 C   0  0  0  0  0  0  0  0  0  0  0  0
    9.6923    5.6468   22.7891 C   0  0  0  0  0  0  0  0  0  0  0  0
   11.7756   10.2554   20.8841 N   0  0  0  0  0  0  0  0  0  0  0  0
    8.9876   11.9370   19.8757 O   0  0  0  0  0  0  0  0  0  0  0  0
    6.0167    8.4478   21.1089 C   0  0  0  0  0  0  0  0  0  0  0  0
   11.0002   10.8890   20.0262 C   0  0  0  0  0  0  0  0  0  0  0  0
    2.1721    7.7393   20.0315 O   0  0  0  0  0  0  0  0  0  0  0  0
    9.1107   10.3880   21.3769 N   0  0  0  0  0  0  0  0  0  0  0  0
    3.9102    9.2008   20.3124 C   0  0  0  0  0  0  0  0  0  0  0  0
   12.7292   10.9960   18.4597 C   0  0  0  0  0  0  0  0  0  0  0  0
    9.3798    6.6793   23.6625 C   0  0  0  0  0  0  0  0  0  0  0  0
   14.7425   10.0739   19.0802 O   0  0  0  0  0  0  0  0  0  0  0  0
    5.1894    9.4673   20.7118 C   0  0  0  0  0  0  0  0  0  0  0  0
    7.3773    8.8224   21.4870 C   0  0  0  0  0  0  0  0  0  0  0  0
    8.4391    6.6439   21.0235 C   0  0  0  0  0  0  0  0  0  0  0  0
    9.6494   11.1353   20.4167 C   0  0  0  0  0  0  0  0  0  0  0  0
    8.1431    7.6829   21.9046 C   0  0  0  0  0  0  0  0  0  0  0  0
    7.7796   10.1314   21.5115 N   0  0  0  0  0  0  0  0  0  0  0  0
    9.2768    5.6183   21.4437 C   0  0  0  0  0  0  0  0  0  0  0  0
    8.6315    7.7322   23.1768 C   0  0  0  0  0  0  0  0  0  0  0  0
   13.0537    9.9821   20.5781 C   0  0  0  0  0  0  0  0  0  0  0  0
   10.3850    4.6575   23.2386 O   0  0  0  0  0  0  0  0  0  0  0  0
    4.2069    6.8450   20.7994 C   0  0  0  0  0  0  0  0  0  0  0  0
    3.0726   10.1043   19.8522 O   0  0  0  0  0  0  0  0  0  0  0  0
    5.5057    7.1196   21.1155 C   0  0  0  0  0  0  0  0  0  0  0  0
    7.0367   11.0229   21.9948 O   0  0  0  0  0  0  0  0  0  0  0  0
  1  8  4  0
  1 12  4  0
  2  9  1  0
  2 11  4  0
  2 25  4  0
  3 12  4  0
  3 14  1  0
  3 23  4  0
  4 13  4  0
  4 21  4  0
  4 24  1  0
  5  8  4  0
  5 23  4  0
  6 18  2  0
  7 15  4  0
  7 16  1  0
  7 27  4  0
  8 18  1  0
 10 18  1  0
 10 20  1  0
 11 15  4  0
 11 26  1  0
 13 22  4  0
 16 19  1  0
 16 20  2  0
 17 19  4  0
 17 21  4  0
 19 22  4  0
 20 28  1  0
 25 27  4  0
M  END
$$$$

 Created by Python create_sdf_string function

 28 30  0  0  0  0  0  0  0  0999 V2000
   11.4592   11.2893   18.7941 C   0  0  0  0  0  0  0  0  0  0  0  0
    3.4202    7.9009   20.3866 C   0  0  0  0  0  0  0  0  0  0  0  0
   13.5280   10.3522   19.3586 C   0  0  0  0  0  0  0  0  0  0  0  0
    9.6923    5.6468   22.7891 C   0  0  0  0  0  0  0  0  0  0  0  0
   11.7756   10.2554   20.8841 N   0  0  0  0  0  0  0  0  0  0  0  0
    8.9876   11.9370   19.8757 O   0  0  0  0  0  0  0  0  0  0  0  0
    6.0167    8.4478   21.1089 C   0  0  0  0  0  0  0  0  0  0  0  0
   11.0002   10.8890   20.0262 C   0  0  0  0  0  0  0  0  0  0  0  0
    2.1721    7.7393   20.0315 O   0  0  0  0  0  0  0  0  0  0  0  0
    9.1107   10.3880   21.3769 N   0  0  0  0  0  0  0  0  0  0  0  0
    3.9102    9.2008   20.3124 C   0  0  0  0  0  0  0  0  0  0  0  0
   12.7292   10.9960   18.4597 C   0  0  0  0  0  0  0  0  0  0  0  0
    9.3798    6.6793   23.6625 C   0  0  0  0  0  0  0  0  0  0  0  0
   14.7425   10.0739   19.0802 O   0  0  0  0  0  0  0  0  0  0  0  0
    5.1894    9.4673   20.7118 C   0  0  0  0  0  0  0  0  0  0  0  0
    7.3773    8.8224   21.4870 C   0  0  0  0  0  0  0  0  0  0  0  0
    8.4391    6.6439   21.0235 C   0  0  0  0  0  0  0  0  0  0  0  0
    9.6494   11.1353   20.4167 C   0  0  0  0  0  0  0  0  0  0  0  0
    8.1431    7.6829   21.9046 C   0  0  0  0  0  0  0  0  0  0  0  0
    7.7796   10.1314   21.5115 N   0  0  0  0  0  0  0  0  0  0  0  0
    9.2768    5.6183   21.4437 C   0  0  0  0  0  0  0  0  0  0  0  0
    8.6315    7.7322   23.1768 C   0  0  0  0  0  0  0  0  0  0  0  0
   13.0537    9.9821   20.5781 C   0  0  0  0  0  0  0  0  0  0  0  0
   10.3850    4.6575   23.2386 O   0  0  0  0  0  0  0  0  0  0  0  0
    4.2069    6.8450   20.7994 C   0  0  0  0  0  0  0  0  0  0  0  0
    3.0726   10.1043   19.8522 O   0  0  0  0  0  0  0  0  0  0  0  0
    5.5057    7.1196   21.1155 C   0  0  0  0  0  0  0  0  0  0  0  0
    7.0367   11.0229   21.9948 O   0  0  0  0  0  0  0  0  0  0  0  0
  1  8  4  0
  1 12  4  0
  2  9  1  0
  2 11  4  0
  2 25  4  0
  3 12  4  0
  3 14  1  0
  3 23  4  0
  4 13  4  0
  4 21  4  0
  4 24  1  0
  5  8  4  0
  5 23  4  0
  6 18  2  0
  7 15  4  0
  7 16  1  0
  7 27  4  0
  8 18  1  0
 10 18  1  0
 10 20  1  0
 11 15  4  0
 11 26  1  0
 13 22  4  0
 16 19  1  0
 16 20  2  0
 17 19  4  0
 17 21  4  0
 19 22  4  0
 20 28  1  0
 25 27  4  0
M  END
$$$$

 Created by Python create_sdf_string function

 28 30  0  0  0  0  0  0  0  0999 V2000
   11.4592   11.2893   18.7941 C   0  0  0  0  0  0  0  0  0  0  0  0
    3.4202    7.9009   20.3866 C   0  0  0  0  0  0  0  0  0  0  0  0
   13.5280   10.3522   19.3586 C   0  0  0  0  0  0  0  0  0  0  0  0
    9.6923    5.6468   22.7891 C   0  0  0  0  0  0  0  0  0  0  0  0
   11.7756   10.2554   20.8841 N   0  0  0  0  0  0  0  0  0  0  0  0
    8.9876   11.9370   19.8757 O   0  0  0  0  0  0  0  0  0  0  0  0
    6.0167    8.4478   21.1089 C   0  0  0  0  0  0  0  0  0  0  0  0
   11.0002   10.8890   20.0262 C   0  0  0  0  0  0  0  0  0  0  0  0
    2.1721    7.7393   20.0315 O   0  0  0  0  0  0  0  0  0  0  0  0
    9.1107   10.3880   21.3769 N   0  0  0  0  0  0  0  0  0  0  0  0
    3.9102    9.2008   20.3124 C   0  0  0  0  0  0  0  0  0  0  0  0
   12.7292   10.9960   18.4597 C   0  0  0  0  0  0  0  0  0  0  0  0
    9.3798    6.6793   23.6625 C   0  0  0  0  0  0  0  0  0  0  0  0
   14.7425   10.0739   19.0802 O   0  0  0  0  0  0  0  0  0  0  0  0
    5.1894    9.4673   20.7118 C   0  0  0  0  0  0  0  0  0  0  0  0
    7.3773    8.8224   21.4870 C   0  0  0  0  0  0  0  0  0  0  0  0
    8.4391    6.6439   21.0235 C   0  0  0  0  0  0  0  0  0  0  0  0
    9.6494   11.1353   20.4167 C   0  0  0  0  0  0  0  0  0  0  0  0
    8.1431    7.6829   21.9046 C   0  0  0  0  0  0  0  0  0  0  0  0
    7.7796   10.1314   21.5115 N   0  0  0  0  0  0  0  0  0  0  0  0
    9.2768    5.6183   21.4437 C   0  0  0  0  0  0  0  0  0  0  0  0
    8.6315    7.7322   23.1768 C   0  0  0  0  0  0  0  0  0  0  0  0
   13.0537    9.9821   20.5781 C   0  0  0  0  0  0  0  0  0  0  0  0
   10.3850    4.6575   23.2386 O   0  0  0  0  0  0  0  0  0  0  0  0
    4.2069    6.8450   20.7994 C   0  0  0  0  0  0  0  0  0  0  0  0
    3.0726   10.1043   19.8522 O   0  0  0  0  0  0  0  0  0  0  0  0
    5.5057    7.1196   21.1155 C   0  0  0  0  0  0  0  0  0  0  0  0
    7.0367   11.0229   21.9948 O   0  0  0  0  0  0  0  0  0  0  0  0
  1  8  4  0
  1 12  4  0
  2  9  1  0
  2 11  4  0
  2 25  4  0
  3 12  4  0
  3 14  1  0
  3 23  4  0
  4 13  4  0
  4 21  4  0
  4 24  1  0
  5  8  4  0
  5 23  4  0
  6 18  2  0
  7 15  4  0
  7 16  1  0
  7 27  4  0
  8 18  1  0
 10 18  1  0
 10 20  1  0
 11 15  4  0
 11 26  1  0
 13 22  4  0
 16 19  1  0
 16 20  2  0
 17 19  4  0
 17 21  4  0
 19 22  4  0
 20 28  1  0
 25 27  4  0
M  END
$$$$

 Created by Python create_sdf_string function

 28 30  0  0  0  0  0  0  0  0999 V2000
   11.4592   11.2893   18.7941 C   0  0  0  0  0  0  0  0  0  0  0  0
    3.4202    7.9009   20.3866 C   0  0  0  0  0  0  0  0  0  0  0  0
   13.5280   10.3522   19.3586 C   0  0  0  0  0  0  0  0  0  0  0  0
    9.6923    5.6468   22.7891 C   0  0  0  0  0  0  0  0  0  0  0  0
   11.7756   10.2554   20.8841 N   0  0  0  0  0  0  0  0  0  0  0  0
    8.9876   11.9370   19.8757 O   0  0  0  0  0  0  0  0  0  0  0  0
    6.0167    8.4478   21.1089 C   0  0  0  0  0  0  0  0  0  0  0  0
   11.0002   10.8890   20.0262 C   0  0  0  0  0  0  0  0  0  0  0  0
    2.1721    7.7393   20.0315 O   0  0  0  0  0  0  0  0  0  0  0  0
    9.1107   10.3880   21.3769 N   0  0  0  0  0  0  0  0  0  0  0  0
    3.9102    9.2008   20.3124 C   0  0  0  0  0  0  0  0  0  0  0  0
   12.7292   10.9960   18.4597 C   0  0  0  0  0  0  0  0  0  0  0  0
    9.3798    6.6793   23.6625 C   0  0  0  0  0  0  0  0  0  0  0  0
   14.7425   10.0739   19.0802 O   0  0  0  0  0  0  0  0  0  0  0  0
    5.1894    9.4673   20.7118 C   0  0  0  0  0  0  0  0  0  0  0  0
    7.3773    8.8224   21.4870 C   0  0  0  0  0  0  0  0  0  0  0  0
    8.4391    6.6439   21.0235 C   0  0  0  0  0  0  0  0  0  0  0  0
    9.6494   11.1353   20.4167 C   0  0  0  0  0  0  0  0  0  0  0  0
    8.1431    7.6829   21.9046 C   0  0  0  0  0  0  0  0  0  0  0  0
    7.7796   10.1314   21.5115 N   0  0  0  0  0  0  0  0  0  0  0  0
    9.2768    5.6183   21.4437 C   0  0  0  0  0  0  0  0  0  0  0  0
    8.6315    7.7322   23.1768 C   0  0  0  0  0  0  0  0  0  0  0  0
   13.0537    9.9821   20.5781 C   0  0  0  0  0  0  0  0  0  0  0  0
   10.3850    4.6575   23.2386 O   0  0  0  0  0  0  0  0  0  0  0  0
    4.2069    6.8450   20.7994 C   0  0  0  0  0  0  0  0  0  0  0  0
    3.0726   10.1043   19.8522 O   0  0  0  0  0  0  0  0  0  0  0  0
    5.5057    7.1196   21.1155 C   0  0  0  0  0  0  0  0  0  0  0  0
    7.0367   11.0229   21.9948 O   0  0  0  0  0  0  0  0  0  0  0  0
  1  8  4  0
  1 12  4  0
  2  9  1  0
  2 11  4  0
  2 25  4  0
  3 12  4  0
  3 14  1  0
  3 23  4  0
  4 13  4  0
  4 21  4  0
  4 24  1  0
  5  8  4  0
  5 23  4  0
  6 18  2  0
  7 15  4  0
  7 16  1  0
  7 27  4  0
  8 18  1  0
 10 18  1  0
 10 20  1  0
 11 15  4  0
 11 26  1  0
 13 22  4  0
 16 19  1  0
 16 20  2  0
 17 19  4  0
 17 21  4  0
 19 22  4  0
 20 28  1  0
 25 27  4  0
M  END
$$$$

 Created by Python create_sdf_string function

 28 30  0  0  0  0  0  0  0  0999 V2000
   11.4592   11.2893   18.7941 C   0  0  0  0  0  0  0  0  0  0  0  0
    3.4202    7.9009   20.3866 C   0  0  0  0  0  0  0  0  0  0  0  0
   13.5280   10.3522   19.3586 C   0  0  0  0  0  0  0  0  0  0  0  0
    9.6923    5.6468   22.7891 C   0  0  0  0  0  0  0  0  0  0  0  0
   11.7756   10.2554   20.8841 N   0  0  0  0  0  0  0  0  0  0  0  0
    8.9876   11.9370   19.8757 O   0  0  0  0  0  0  0  0  0  0  0  0
    6.0167    8.4478   21.1089 C   0  0  0  0  0  0  0  0  0  0  0  0
   11.0002   10.8890   20.0262 C   0  0  0  0  0  0  0  0  0  0  0  0
    2.1721    7.7393   20.0315 O   0  0  0  0  0  0  0  0  0  0  0  0
    9.1107   10.3880   21.3769 N   0  0  0  0  0  0  0  0  0  0  0  0
    3.9102    9.2008   20.3124 C   0  0  0  0  0  0  0  0  0  0  0  0
   12.7292   10.9960   18.4597 C   0  0  0  0  0  0  0  0  0  0  0  0
    9.3798    6.6793   23.6625 C   0  0  0  0  0  0  0  0  0  0  0  0
   14.7425   10.0739   19.0802 O   0  0  0  0  0  0  0  0  0  0  0  0
    5.1894    9.4673   20.7118 C   0  0  0  0  0  0  0  0  0  0  0  0
    7.3773    8.8224   21.4870 C   0  0  0  0  0  0  0  0  0  0  0  0
    8.4391    6.6439   21.0235 C   0  0  0  0  0  0  0  0  0  0  0  0
    9.6494   11.1353   20.4167 C   0  0  0  0  0  0  0  0  0  0  0  0
    8.1431    7.6829   21.9046 C   0  0  0  0  0  0  0  0  0  0  0  0
    7.7796   10.1314   21.5115 N   0  0  0  0  0  0  0  0  0  0  0  0
    9.2768    5.6183   21.4437 C   0  0  0  0  0  0  0  0  0  0  0  0
    8.6315    7.7322   23.1768 C   0  0  0  0  0  0  0  0  0  0  0  0
   13.0537    9.9821   20.5781 C   0  0  0  0  0  0  0  0  0  0  0  0
   10.3850    4.6575   23.2386 O   0  0  0  0  0  0  0  0  0  0  0  0
    4.2069    6.8450   20.7994 C   0  0  0  0  0  0  0  0  0  0  0  0
    3.0726   10.1043   19.8522 O   0  0  0  0  0  0  0  0  0  0  0  0
    5.5057    7.1196   21.1155 C   0  0  0  0  0  0  0  0  0  0  0  0
    7.0367   11.0229   21.9948 O   0  0  0  0  0  0  0  0  0  0  0  0
  1  8  4  0
  1 12  4  0
  2  9  1  0
  2 11  4  0
  2 25  4  0
  3 12  4  0
  3 14  1  0
  3 23  4  0
  4 13  4  0
  4 21  4  0
  4 24  1  0
  5  8  4  0
  5 23  4  0
  6 18  2  0
  7 15  4  0
  7 16  1  0
  7 27  4  0
  8 18  1  0
 10 18  1  0
 10 20  1  0
 11 15  4  0
 11 26  1  0
 13 22  4  0
 16 19  1  0
 16 20  2  0
 17 19  4  0
 17 21  4  0
 19 22  4  0
 20 28  1  0
 25 27  4  0
M  END
$$$$

 Created by Python create_sdf_string function

 28 30  0  0  0  0  0  0  0  0999 V2000
   11.4592   11.2893   18.7941 C   0  0  0  0  0  0  0  0  0  0  0  0
    3.4202    7.9009   20.3866 C   0  0  0  0  0  0  0  0  0  0  0  0
   13.5280   10.3522   19.3586 C   0  0  0  0  0  0  0  0  0  0  0  0
    9.6923    5.6468   22.7891 C   0  0  0  0  0  0  0  0  0  0  0  0
   11.7756   10.2554   20.8841 N   0  0  0  0  0  0  0  0  0  0  0  0
    8.9876   11.9370   19.8757 O   0  0  0  0  0  0  0  0  0  0  0  0
    6.0167    8.4478   21.1089 C   0  0  0  0  0  0  0  0  0  0  0  0
   11.0002   10.8890   20.0262 C   0  0  0  0  0  0  0  0  0  0  0  0
    2.1721    7.7393   20.0315 O   0  0  0  0  0  0  0  0  0  0  0  0
    9.1107   10.3880   21.3769 N   0  0  0  0  0  0  0  0  0  0  0  0
    3.9102    9.2008   20.3124 C   0  0  0  0  0  0  0  0  0  0  0  0
   12.7292   10.9960   18.4597 C   0  0  0  0  0  0  0  0  0  0  0  0
    9.3798    6.6793   23.6625 C   0  0  0  0  0  0  0  0  0  0  0  0
   14.7425   10.0739   19.0802 O   0  0  0  0  0  0  0  0  0  0  0  0
    5.1894    9.4673   20.7118 C   0  0  0  0  0  0  0  0  0  0  0  0
    7.3773    8.8224   21.4870 C   0  0  0  0  0  0  0  0  0  0  0  0
    8.4391    6.6439   21.0235 C   0  0  0  0  0  0  0  0  0  0  0  0
    9.6494   11.1353   20.4167 C   0  0  0  0  0  0  0  0  0  0  0  0
    8.1431    7.6829   21.9046 C   0  0  0  0  0  0  0  0  0  0  0  0
    7.7796   10.1314   21.5115 N   0  0  0  0  0  0  0  0  0  0  0  0
    9.2768    5.6183   21.4437 C   0  0  0  0  0  0  0  0  0  0  0  0
    8.6315    7.7322   23.1768 C   0  0  0  0  0  0  0  0  0  0  0  0
   13.0537    9.9821   20.5781 C   0  0  0  0  0  0  0  0  0  0  0  0
   10.3850    4.6575   23.2386 O   0  0  0  0  0  0  0  0  0  0  0  0
    4.2069    6.8450   20.7994 C   0  0  0  0  0  0  0  0  0  0  0  0
    3.0726   10.1043   19.8522 O   0  0  0  0  0  0  0  0  0  0  0  0
    5.5057    7.1196   21.1155 C   0  0  0  0  0  0  0  0  0  0  0  0
    7.0367   11.0229   21.9948 O   0  0  0  0  0  0  0  0  0  0  0  0
  1  8  4  0
  1 12  4  0
  2  9  1  0
  2 11  4  0
  2 25  4  0
  3 12  4  0
  3 14  1  0
  3 23  4  0
  4 13  4  0
  4 21  4  0
  4 24  1  0
  5  8  4  0
  5 23  4  0
  6 18  2  0
  7 15  4  0
  7 16  1  0
  7 27  4  0
  8 18  1  0
 10 18  1  0
 10 20  1  0
 11 15  4  0
 11 26  1  0
 13 22  4  0
 16 19  1  0
 16 20  2  0
 17 19  4  0
 17 21  4  0
 19 22  4  0
 20 28  1  0
 25 27  4  0
M  END
$$$$

 Created by Python create_sdf_string function

 28 30  0  0  0  0  0  0  0  0999 V2000
   11.4592   11.2893   18.7941 C   0  0  0  0  0  0  0  0  0  0  0  0
    3.4202    7.9009   20.3866 C   0  0  0  0  0  0  0  0  0  0  0  0
   13.5280   10.3522   19.3586 C   0  0  0  0  0  0  0  0  0  0  0  0
    9.6923    5.6468   22.7891 C   0  0  0  0  0  0  0  0  0  0  0  0
   11.7756   10.2554   20.8841 N   0  0  0  0  0  0  0  0  0  0  0  0
    8.9876   11.9370   19.8757 O   0  0  0  0  0  0  0  0  0  0  0  0
    6.0167    8.4478   21.1089 C   0  0  0  0  0  0  0  0  0  0  0  0
   11.0002   10.8890   20.0262 C   0  0  0  0  0  0  0  0  0  0  0  0
    2.1721    7.7393   20.0315 O   0  0  0  0  0  0  0  0  0  0  0  0
    9.1107   10.3880   21.3769 N   0  0  0  0  0  0  0  0  0  0  0  0
    3.9102    9.2008   20.3124 C   0  0  0  0  0  0  0  0  0  0  0  0
   12.7292   10.9960   18.4597 C   0  0  0  0  0  0  0  0  0  0  0  0
    9.3798    6.6793   23.6625 C   0  0  0  0  0  0  0  0  0  0  0  0
   14.7425   10.0739   19.0802 O   0  0  0  0  0  0  0  0  0  0  0  0
    5.1894    9.4673   20.7118 C   0  0  0  0  0  0  0  0  0  0  0  0
    7.3773    8.8224   21.4870 C   0  0  0  0  0  0  0  0  0  0  0  0
    8.4391    6.6439   21.0235 C   0  0  0  0  0  0  0  0  0  0  0  0
    9.6494   11.1353   20.4167 C   0  0  0  0  0  0  0  0  0  0  0  0
    8.1431    7.6829   21.9046 C   0  0  0  0  0  0  0  0  0  0  0  0
    7.7796   10.1314   21.5115 N   0  0  0  0  0  0  0  0  0  0  0  0
    9.2768    5.6183   21.4437 C   0  0  0  0  0  0  0  0  0  0  0  0
    8.6315    7.7322   23.1768 C   0  0  0  0  0  0  0  0  0  0  0  0
   13.0537    9.9821   20.5781 C   0  0  0  0  0  0  0  0  0  0  0  0
   10.3850    4.6575   23.2386 O   0  0  0  0  0  0  0  0  0  0  0  0
    4.2069    6.8450   20.7994 C   0  0  0  0  0  0  0  0  0  0  0  0
    3.0726   10.1043   19.8522 O   0  0  0  0  0  0  0  0  0  0  0  0
    5.5057    7.1196   21.1155 C   0  0  0  0  0  0  0  0  0  0  0  0
    7.0367   11.0229   21.9948 O   0  0  0  0  0  0  0  0  0  0  0  0
  1  8  4  0
  1 12  4  0
  2  9  1  0
  2 11  4  0
  2 25  4  0
  3 12  4  0
  3 14  1  0
  3 23  4  0
  4 13  4  0
  4 21  4  0
  4 24  1  0
  5  8  4  0
  5 23  4  0
  6 18  2  0
  7 15  4  0
  7 16  1  0
  7 27  4  0
  8 18  1  0
 10 18  1  0
 10 20  1  0
 11 15  4  0
 11 26  1  0
 13 22  4  0
 16 19  1  0
 16 20  2  0
 17 19  4  0
 17 21  4  0
 19 22  4  0
 20 28  1  0
 25 27  4  0
M  END
$$$$

 Created by Python create_sdf_string function

 28 30  0  0  0  0  0  0  0  0999 V2000
   11.4592   11.2893   18.7941 C   0  0  0  0  0  0  0  0  0  0  0  0
    3.4202    7.9009   20.3866 C   0  0  0  0  0  0  0  0  0  0  0  0
   13.5280   10.3522   19.3586 C   0  0  0  0  0  0  0  0  0  0  0  0
    9.6923    5.6468   22.7891 C   0  0  0  0  0  0  0  0  0  0  0  0
   11.7756   10.2554   20.8841 N   0  0  0  0  0  0  0  0  0  0  0  0
    8.9876   11.9370   19.8757 O   0  0  0  0  0  0  0  0  0  0  0  0
    6.0167    8.4478   21.1089 C   0  0  0  0  0  0  0  0  0  0  0  0
   11.0002   10.8890   20.0262 C   0  0  0  0  0  0  0  0  0  0  0  0
    2.1721    7.7393   20.0315 O   0  0  0  0  0  0  0  0  0  0  0  0
    9.1107   10.3880   21.3769 N   0  0  0  0  0  0  0  0  0  0  0  0
    3.9102    9.2008   20.3124 C   0  0  0  0  0  0  0  0  0  0  0  0
   12.7292   10.9960   18.4597 C   0  0  0  0  0  0  0  0  0  0  0  0
    9.3798    6.6793   23.6625 C   0  0  0  0  0  0  0  0  0  0  0  0
   14.7425   10.0739   19.0802 O   0  0  0  0  0  0  0  0  0  0  0  0
    5.1894    9.4673   20.7118 C   0  0  0  0  0  0  0  0  0  0  0  0
    7.3773    8.8224   21.4870 C   0  0  0  0  0  0  0  0  0  0  0  0
    8.4391    6.6439   21.0235 C   0  0  0  0  0  0  0  0  0  0  0  0
    9.6494   11.1353   20.4167 C   0  0  0  0  0  0  0  0  0  0  0  0
    8.1431    7.6829   21.9046 C   0  0  0  0  0  0  0  0  0  0  0  0
    7.7796   10.1314   21.5115 N   0  0  0  0  0  0  0  0  0  0  0  0
    9.2768    5.6183   21.4437 C   0  0  0  0  0  0  0  0  0  0  0  0
    8.6315    7.7322   23.1768 C   0  0  0  0  0  0  0  0  0  0  0  0
   13.0537    9.9821   20.5781 C   0  0  0  0  0  0  0  0  0  0  0  0
   10.3850    4.6575   23.2386 O   0  0  0  0  0  0  0  0  0  0  0  0
    4.2069    6.8450   20.7994 C   0  0  0  0  0  0  0  0  0  0  0  0
    3.0726   10.1043   19.8522 O   0  0  0  0  0  0  0  0  0  0  0  0
    5.5057    7.1196   21.1155 C   0  0  0  0  0  0  0  0  0  0  0  0
    7.0367   11.0229   21.9948 O   0  0  0  0  0  0  0  0  0  0  0  0
  1  8  4  0
  1 12  4  0
  2  9  1  0
  2 11  4  0
  2 25  4  0
  3 12  4  0
  3 14  1  0
  3 23  4  0
  4 13  4  0
  4 21  4  0
  4 24  1  0
  5  8  4  0
  5 23  4  0
  6 18  2  0
  7 15  4  0
  7 16  1  0
  7 27  4  0
  8 18  1  0
 10 18  1  0
 10 20  1  0
 11 15  4  0
 11 26  1  0
 13 22  4  0
 16 19  1  0
 16 20  2  0
 17 19  4  0
 17 21  4  0
 19 22  4  0
 20 28  1  0
 25 27  4  0
M  END
$$$$

 Created by Python create_sdf_string function

 28 30  0  0  0  0  0  0  0  0999 V2000
   11.4592   11.2893   18.7941 C   0  0  0  0  0  0  0  0  0  0  0  0
    3.4202    7.9009   20.3866 C   0  0  0  0  0  0  0  0  0  0  0  0
   13.5280   10.3522   19.3586 C   0  0  0  0  0  0  0  0  0  0  0  0
    9.6923    5.6468   22.7891 C   0  0  0  0  0  0  0  0  0  0  0  0
   11.7756   10.2554   20.8841 N   0  0  0  0  0  0  0  0  0  0  0  0
    8.9876   11.9370   19.8757 O   0  0  0  0  0  0  0  0  0  0  0  0
    6.0167    8.4478   21.1089 C   0  0  0  0  0  0  0  0  0  0  0  0
   11.0002   10.8890   20.0262 C   0  0  0  0  0  0  0  0  0  0  0  0
    2.1721    7.7393   20.0315 O   0  0  0  0  0  0  0  0  0  0  0  0
    9.1107   10.3880   21.3769 N   0  0  0  0  0  0  0  0  0  0  0  0
    3.9102    9.2008   20.3124 C   0  0  0  0  0  0  0  0  0  0  0  0
   12.7292   10.9960   18.4597 C   0  0  0  0  0  0  0  0  0  0  0  0
    9.3798    6.6793   23.6625 C   0  0  0  0  0  0  0  0  0  0  0  0
   14.7425   10.0739   19.0802 O   0  0  0  0  0  0  0  0  0  0  0  0
    5.1894    9.4673   20.7118 C   0  0  0  0  0  0  0  0  0  0  0  0
    7.3773    8.8224   21.4870 C   0  0  0  0  0  0  0  0  0  0  0  0
    8.4391    6.6439   21.0235 C   0  0  0  0  0  0  0  0  0  0  0  0
    9.6494   11.1353   20.4167 C   0  0  0  0  0  0  0  0  0  0  0  0
    8.1431    7.6829   21.9046 C   0  0  0  0  0  0  0  0  0  0  0  0
    7.7796   10.1314   21.5115 N   0  0  0  0  0  0  0  0  0  0  0  0
    9.2768    5.6183   21.4437 C   0  0  0  0  0  0  0  0  0  0  0  0
    8.6315    7.7322   23.1768 C   0  0  0  0  0  0  0  0  0  0  0  0
   13.0537    9.9821   20.5781 C   0  0  0  0  0  0  0  0  0  0  0  0
   10.3850    4.6575   23.2386 O   0  0  0  0  0  0  0  0  0  0  0  0
    4.2069    6.8450   20.7994 C   0  0  0  0  0  0  0  0  0  0  0  0
    3.0726   10.1043   19.8522 O   0  0  0  0  0  0  0  0  0  0  0  0
    5.5057    7.1196   21.1155 C   0  0  0  0  0  0  0  0  0  0  0  0
    7.0367   11.0229   21.9948 O   0  0  0  0  0  0  0  0  0  0  0  0
  1  8  4  0
  1 12  4  0
  2  9  1  0
  2 11  4  0
  2 25  4  0
  3 12  4  0
  3 14  1  0
  3 23  4  0
  4 13  4  0
  4 21  4  0
  4 24  1  0
  5  8  4  0
  5 23  4  0
  6 18  2  0
  7 15  4  0
  7 16  1  0
  7 27  4  0
  8 18  1  0
 10 18  1  0
 10 20  1  0
 11 15  4  0
 11 26  1  0
 13 22  4  0
 16 19  1  0
 16 20  2  0
 17 19  4  0
 17 21  4  0
 19 22  4  0
 20 28  1  0
 25 27  4  0
M  END
$$$$

 Created by Python create_sdf_string function

 28 30  0  0  0  0  0  0  0  0999 V2000
   11.4592   11.2893   18.7941 C   0  0  0  0  0  0  0  0  0  0  0  0
    3.4202    7.9009   20.3866 C   0  0  0  0  0  0  0  0  0  0  0  0
   13.5280   10.3522   19.3586 C   0  0  0  0  0  0  0  0  0  0  0  0
    9.6923    5.6468   22.7891 C   0  0  0  0  0  0  0  0  0  0  0  0
   11.7756   10.2554   20.8841 N   0  0  0  0  0  0  0  0  0  0  0  0
    8.9876   11.9370   19.8757 O   0  0  0  0  0  0  0  0  0  0  0  0
    6.0167    8.4478   21.1089 C   0  0  0  0  0  0  0  0  0  0  0  0
   11.0002   10.8890   20.0262 C   0  0  0  0  0  0  0  0  0  0  0  0
    2.1721    7.7393   20.0315 O   0  0  0  0  0  0  0  0  0  0  0  0
    9.1107   10.3880   21.3769 N   0  0  0  0  0  0  0  0  0  0  0  0
    3.9102    9.2008   20.3124 C   0  0  0  0  0  0  0  0  0  0  0  0
   12.7292   10.9960   18.4597 C   0  0  0  0  0  0  0  0  0  0  0  0
    9.3798    6.6793   23.6625 C   0  0  0  0  0  0  0  0  0  0  0  0
   14.7425   10.0739   19.0802 O   0  0  0  0  0  0  0  0  0  0  0  0
    5.1894    9.4673   20.7118 C   0  0  0  0  0  0  0  0  0  0  0  0
    7.3773    8.8224   21.4870 C   0  0  0  0  0  0  0  0  0  0  0  0
    8.4391    6.6439   21.0235 C   0  0  0  0  0  0  0  0  0  0  0  0
    9.6494   11.1353   20.4167 C   0  0  0  0  0  0  0  0  0  0  0  0
    8.1431    7.6829   21.9046 C   0  0  0  0  0  0  0  0  0  0  0  0
    7.7796   10.1314   21.5115 N   0  0  0  0  0  0  0  0  0  0  0  0
    9.2768    5.6183   21.4437 C   0  0  0  0  0  0  0  0  0  0  0  0
    8.6315    7.7322   23.1768 C   0  0  0  0  0  0  0  0  0  0  0  0
   13.0537    9.9821   20.5781 C   0  0  0  0  0  0  0  0  0  0  0  0
   10.3850    4.6575   23.2386 O   0  0  0  0  0  0  0  0  0  0  0  0
    4.2069    6.8450   20.7994 C   0  0  0  0  0  0  0  0  0  0  0  0
    3.0726   10.1043   19.8522 O   0  0  0  0  0  0  0  0  0  0  0  0
    5.5057    7.1196   21.1155 C   0  0  0  0  0  0  0  0  0  0  0  0
    7.0367   11.0229   21.9948 O   0  0  0  0  0  0  0  0  0  0  0  0
  1  8  4  0
  1 12  4  0
  2  9  1  0
  2 11  4  0
  2 25  4  0
  3 12  4  0
  3 14  1  0
  3 23  4  0
  4 13  4  0
  4 21  4  0
  4 24  1  0
  5  8  4  0
  5 23  4  0
  6 18  2  0
  7 15  4  0
  7 16  1  0
  7 27  4  0
  8 18  1  0
 10 18  1  0
 10 20  1  0
 11 15  4  0
 11 26  1  0
 13 22  4  0
 16 19  1  0
 16 20  2  0
 17 19  4  0
 17 21  4  0
 19 22  4  0
 20 28  1  0
 25 27  4  0
M  END
$$$$

 Created by Python create_sdf_string function

 28 30  0  0  0  0  0  0  0  0999 V2000
   11.4592   11.2893   18.7941 C   0  0  0  0  0  0  0  0  0  0  0  0
    3.4202    7.9009   20.3866 C   0  0  0  0  0  0  0  0  0  0  0  0
   13.5280   10.3522   19.3586 C   0  0  0  0  0  0  0  0  0  0  0  0
    9.6923    5.6468   22.7891 C   0  0  0  0  0  0  0  0  0  0  0  0
   11.7756   10.2554   20.8841 N   0  0  0  0  0  0  0  0  0  0  0  0
    8.9876   11.9370   19.8757 O   0  0  0  0  0  0  0  0  0  0  0  0
    6.0167    8.4478   21.1089 C   0  0  0  0  0  0  0  0  0  0  0  0
   11.0002   10.8890   20.0262 C   0  0  0  0  0  0  0  0  0  0  0  0
    2.1721    7.7393   20.0315 O   0  0  0  0  0  0  0  0  0  0  0  0
    9.1107   10.3880   21.3769 N   0  0  0  0  0  0  0  0  0  0  0  0
    3.9102    9.2008   20.3124 C   0  0  0  0  0  0  0  0  0  0  0  0
   12.7292   10.9960   18.4597 C   0  0  0  0  0  0  0  0  0  0  0  0
    9.3798    6.6793   23.6625 C   0  0  0  0  0  0  0  0  0  0  0  0
   14.7425   10.0739   19.0802 O   0  0  0  0  0  0  0  0  0  0  0  0
    5.1894    9.4673   20.7118 C   0  0  0  0  0  0  0  0  0  0  0  0
    7.3773    8.8224   21.4870 C   0  0  0  0  0  0  0  0  0  0  0  0
    8.4391    6.6439   21.0235 C   0  0  0  0  0  0  0  0  0  0  0  0
    9.6494   11.1353   20.4167 C   0  0  0  0  0  0  0  0  0  0  0  0
    8.1431    7.6829   21.9046 C   0  0  0  0  0  0  0  0  0  0  0  0
    7.7796   10.1314   21.5115 N   0  0  0  0  0  0  0  0  0  0  0  0
    9.2768    5.6183   21.4437 C   0  0  0  0  0  0  0  0  0  0  0  0
    8.6315    7.7322   23.1768 C   0  0  0  0  0  0  0  0  0  0  0  0
   13.0537    9.9821   20.5781 C   0  0  0  0  0  0  0  0  0  0  0  0
   10.3850    4.6575   23.2386 O   0  0  0  0  0  0  0  0  0  0  0  0
    4.2069    6.8450   20.7994 C   0  0  0  0  0  0  0  0  0  0  0  0
    3.0726   10.1043   19.8522 O   0  0  0  0  0  0  0  0  0  0  0  0
    5.5057    7.1196   21.1155 C   0  0  0  0  0  0  0  0  0  0  0  0
    7.0367   11.0229   21.9948 O   0  0  0  0  0  0  0  0  0  0  0  0
  1  8  4  0
  1 12  4  0
  2  9  1  0
  2 11  4  0
  2 25  4  0
  3 12  4  0
  3 14  1  0
  3 23  4  0
  4 13  4  0
  4 21  4  0
  4 24  1  0
  5  8  4  0
  5 23  4  0
  6 18  2  0
  7 15  4  0
  7 16  1  0
  7 27  4  0
  8 18  1  0
 10 18  1  0
 10 20  1  0
 11 15  4  0
 11 26  1  0
 13 22  4  0
 16 19  1  0
 16 20  2  0
 17 19  4  0
 17 21  4  0
 19 22  4  0
 20 28  1  0
 25 27  4  0
M  END
$$$$

 Created by Python create_sdf_string function

 28 30  0  0  0  0  0  0  0  0999 V2000
   11.4592   11.2893   18.7941 C   0  0  0  0  0  0  0  0  0  0  0  0
    3.4202    7.9009   20.3866 C   0  0  0  0  0  0  0  0  0  0  0  0
   13.5280   10.3522   19.3586 C   0  0  0  0  0  0  0  0  0  0  0  0
    9.6923    5.6468   22.7891 C   0  0  0  0  0  0  0  0  0  0  0  0
   11.7756   10.2554   20.8841 N   0  0  0  0  0  0  0  0  0  0  0  0
    8.9876   11.9370   19.8757 O   0  0  0  0  0  0  0  0  0  0  0  0
    6.0167    8.4478   21.1089 C   0  0  0  0  0  0  0  0  0  0  0  0
   11.0002   10.8890   20.0262 C   0  0  0  0  0  0  0  0  0  0  0  0
    2.1721    7.7393   20.0315 O   0  0  0  0  0  0  0  0  0  0  0  0
    9.1107   10.3880   21.3769 N   0  0  0  0  0  0  0  0  0  0  0  0
    3.9102    9.2008   20.3124 C   0  0  0  0  0  0  0  0  0  0  0  0
   12.7292   10.9960   18.4597 C   0  0  0  0  0  0  0  0  0  0  0  0
    9.3798    6.6793   23.6625 C   0  0  0  0  0  0  0  0  0  0  0  0
   14.7425   10.0739   19.0802 O   0  0  0  0  0  0  0  0  0  0  0  0
    5.1894    9.4673   20.7118 C   0  0  0  0  0  0  0  0  0  0  0  0
    7.3773    8.8224   21.4870 C   0  0  0  0  0  0  0  0  0  0  0  0
    8.4391    6.6439   21.0235 C   0  0  0  0  0  0  0  0  0  0  0  0
    9.6494   11.1353   20.4167 C   0  0  0  0  0  0  0  0  0  0  0  0
    8.1431    7.6829   21.9046 C   0  0  0  0  0  0  0  0  0  0  0  0
    7.7796   10.1314   21.5115 N   0  0  0  0  0  0  0  0  0  0  0  0
    9.2768    5.6183   21.4437 C   0  0  0  0  0  0  0  0  0  0  0  0
    8.6315    7.7322   23.1768 C   0  0  0  0  0  0  0  0  0  0  0  0
   13.0537    9.9821   20.5781 C   0  0  0  0  0  0  0  0  0  0  0  0
   10.3850    4.6575   23.2386 O   0  0  0  0  0  0  0  0  0  0  0  0
    4.2069    6.8450   20.7994 C   0  0  0  0  0  0  0  0  0  0  0  0
    3.0726   10.1043   19.8522 O   0  0  0  0  0  0  0  0  0  0  0  0
    5.5057    7.1196   21.1155 C   0  0  0  0  0  0  0  0  0  0  0  0
    7.0367   11.0229   21.9948 O   0  0  0  0  0  0  0  0  0  0  0  0
  1  8  4  0
  1 12  4  0
  2  9  1  0
  2 11  4  0
  2 25  4  0
  3 12  4  0
  3 14  1  0
  3 23  4  0
  4 13  4  0
  4 21  4  0
  4 24  1  0
  5  8  4  0
  5 23  4  0
  6 18  2  0
  7 15  4  0
  7 16  1  0
  7 27  4  0
  8 18  1  0
 10 18  1  0
 10 20  1  0
 11 15  4  0
 11 26  1  0
 13 22  4  0
 16 19  1  0
 16 20  2  0
 17 19  4  0
 17 21  4  0
 19 22  4  0
 20 28  1  0
 25 27  4  0
M  END
$$$$

 Created by Python create_sdf_string function

 28 30  0  0  0  0  0  0  0  0999 V2000
   11.4592   11.2893   18.7941 C   0  0  0  0  0  0  0  0  0  0  0  0
    3.4202    7.9009   20.3866 C   0  0  0  0  0  0  0  0  0  0  0  0
   13.5280   10.3522   19.3586 C   0  0  0  0  0  0  0  0  0  0  0  0
    9.6923    5.6468   22.7891 C   0  0  0  0  0  0  0  0  0  0  0  0
   11.7756   10.2554   20.8841 N   0  0  0  0  0  0  0  0  0  0  0  0
    8.9876   11.9370   19.8757 O   0  0  0  0  0  0  0  0  0  0  0  0
    6.0167    8.4478   21.1089 C   0  0  0  0  0  0  0  0  0  0  0  0
   11.0002   10.8890   20.0262 C   0  0  0  0  0  0  0  0  0  0  0  0
    2.1721    7.7393   20.0315 O   0  0  0  0  0  0  0  0  0  0  0  0
    9.1107   10.3880   21.3769 N   0  0  0  0  0  0  0  0  0  0  0  0
    3.9102    9.2008   20.3124 C   0  0  0  0  0  0  0  0  0  0  0  0
   12.7292   10.9960   18.4597 C   0  0  0  0  0  0  0  0  0  0  0  0
    9.3798    6.6793   23.6625 C   0  0  0  0  0  0  0  0  0  0  0  0
   14.7425   10.0739   19.0802 O   0  0  0  0  0  0  0  0  0  0  0  0
    5.1894    9.4673   20.7118 C   0  0  0  0  0  0  0  0  0  0  0  0
    7.3773    8.8224   21.4870 C   0  0  0  0  0  0  0  0  0  0  0  0
    8.4391    6.6439   21.0235 C   0  0  0  0  0  0  0  0  0  0  0  0
    9.6494   11.1353   20.4167 C   0  0  0  0  0  0  0  0  0  0  0  0
    8.1431    7.6829   21.9046 C   0  0  0  0  0  0  0  0  0  0  0  0
    7.7796   10.1314   21.5115 N   0  0  0  0  0  0  0  0  0  0  0  0
    9.2768    5.6183   21.4437 C   0  0  0  0  0  0  0  0  0  0  0  0
    8.6315    7.7322   23.1768 C   0  0  0  0  0  0  0  0  0  0  0  0
   13.0537    9.9821   20.5781 C   0  0  0  0  0  0  0  0  0  0  0  0
   10.3850    4.6575   23.2386 O   0  0  0  0  0  0  0  0  0  0  0  0
    4.2069    6.8450   20.7994 C   0  0  0  0  0  0  0  0  0  0  0  0
    3.0726   10.1043   19.8522 O   0  0  0  0  0  0  0  0  0  0  0  0
    5.5057    7.1196   21.1155 C   0  0  0  0  0  0  0  0  0  0  0  0
    7.0367   11.0229   21.9948 O   0  0  0  0  0  0  0  0  0  0  0  0
  1  8  4  0
  1 12  4  0
  2  9  1  0
  2 11  4  0
  2 25  4  0
  3 12  4  0
  3 14  1  0
  3 23  4  0
  4 13  4  0
  4 21  4  0
  4 24  1  0
  5  8  4  0
  5 23  4  0
  6 18  2  0
  7 15  4  0
  7 16  1  0
  7 27  4  0
  8 18  1  0
 10 18  1  0
 10 20  1  0
 11 15  4  0
 11 26  1  0
 13 22  4  0
 16 19  1  0
 16 20  2  0
 17 19  4  0
 17 21  4  0
 19 22  4  0
 20 28  1  0
 25 27  4  0
M  END
$$$$

 Created by Python create_sdf_string function

 28 30  0  0  0  0  0  0  0  0999 V2000
   11.4592   11.2893   18.7941 C   0  0  0  0  0  0  0  0  0  0  0  0
    3.4202    7.9009   20.3866 C   0  0  0  0  0  0  0  0  0  0  0  0
   13.5280   10.3522   19.3586 C   0  0  0  0  0  0  0  0  0  0  0  0
    9.6923    5.6468   22.7891 C   0  0  0  0  0  0  0  0  0  0  0  0
   11.7756   10.2554   20.8841 N   0  0  0  0  0  0  0  0  0  0  0  0
    8.9876   11.9370   19.8757 O   0  0  0  0  0  0  0  0  0  0  0  0
    6.0167    8.4478   21.1089 C   0  0  0  0  0  0  0  0  0  0  0  0
   11.0002   10.8890   20.0262 C   0  0  0  0  0  0  0  0  0  0  0  0
    2.1721    7.7393   20.0315 O   0  0  0  0  0  0  0  0  0  0  0  0
    9.1107   10.3880   21.3769 N   0  0  0  0  0  0  0  0  0  0  0  0
    3.9102    9.2008   20.3124 C   0  0  0  0  0  0  0  0  0  0  0  0
   12.7292   10.9960   18.4597 C   0  0  0  0  0  0  0  0  0  0  0  0
    9.3798    6.6793   23.6625 C   0  0  0  0  0  0  0  0  0  0  0  0
   14.7425   10.0739   19.0802 O   0  0  0  0  0  0  0  0  0  0  0  0
    5.1894    9.4673   20.7118 C   0  0  0  0  0  0  0  0  0  0  0  0
    7.3773    8.8224   21.4870 C   0  0  0  0  0  0  0  0  0  0  0  0
    8.4391    6.6439   21.0235 C   0  0  0  0  0  0  0  0  0  0  0  0
    9.6494   11.1353   20.4167 C   0  0  0  0  0  0  0  0  0  0  0  0
    8.1431    7.6829   21.9046 C   0  0  0  0  0  0  0  0  0  0  0  0
    7.7796   10.1314   21.5115 N   0  0  0  0  0  0  0  0  0  0  0  0
    9.2768    5.6183   21.4437 C   0  0  0  0  0  0  0  0  0  0  0  0
    8.6315    7.7322   23.1768 C   0  0  0  0  0  0  0  0  0  0  0  0
   13.0537    9.9821   20.5781 C   0  0  0  0  0  0  0  0  0  0  0  0
   10.3850    4.6575   23.2386 O   0  0  0  0  0  0  0  0  0  0  0  0
    4.2069    6.8450   20.7994 C   0  0  0  0  0  0  0  0  0  0  0  0
    3.0726   10.1043   19.8522 O   0  0  0  0  0  0  0  0  0  0  0  0
    5.5057    7.1196   21.1155 C   0  0  0  0  0  0  0  0  0  0  0  0
    7.0367   11.0229   21.9948 O   0  0  0  0  0  0  0  0  0  0  0  0
  1  8  4  0
  1 12  4  0
  2  9  1  0
  2 11  4  0
  2 25  4  0
  3 12  4  0
  3 14  1  0
  3 23  4  0
  4 13  4  0
  4 21  4  0
  4 24  1  0
  5  8  4  0
  5 23  4  0
  6 18  2  0
  7 15  4  0
  7 16  1  0
  7 27  4  0
  8 18  1  0
 10 18  1  0
 10 20  1  0
 11 15  4  0
 11 26  1  0
 13 22  4  0
 16 19  1  0
 16 20  2  0
 17 19  4  0
 17 21  4  0
 19 22  4  0
 20 28  1  0
 25 27  4  0
M  END
$$$$

 Created by Python create_sdf_string function

 28 30  0  0  0  0  0  0  0  0999 V2000
   11.4592   11.2893   18.7941 C   0  0  0  0  0  0  0  0  0  0  0  0
    3.4202    7.9009   20.3866 C   0  0  0  0  0  0  0  0  0  0  0  0
   13.5280   10.3522   19.3586 C   0  0  0  0  0  0  0  0  0  0  0  0
    9.6923    5.6468   22.7891 C   0  0  0  0  0  0  0  0  0  0  0  0
   11.7756   10.2554   20.8841 N   0  0  0  0  0  0  0  0  0  0  0  0
    8.9876   11.9370   19.8757 O   0  0  0  0  0  0  0  0  0  0  0  0
    6.0167    8.4478   21.1089 C   0  0  0  0  0  0  0  0  0  0  0  0
   11.0002   10.8890   20.0262 C   0  0  0  0  0  0  0  0  0  0  0  0
    2.1721    7.7393   20.0315 O   0  0  0  0  0  0  0  0  0  0  0  0
    9.1107   10.3880   21.3769 N   0  0  0  0  0  0  0  0  0  0  0  0
    3.9102    9.2008   20.3124 C   0  0  0  0  0  0  0  0  0  0  0  0
   12.7292   10.9960   18.4597 C   0  0  0  0  0  0  0  0  0  0  0  0
    9.3798    6.6793   23.6625 C   0  0  0  0  0  0  0  0  0  0  0  0
   14.7425   10.0739   19.0802 O   0  0  0  0  0  0  0  0  0  0  0  0
    5.1894    9.4673   20.7118 C   0  0  0  0  0  0  0  0  0  0  0  0
    7.3773    8.8224   21.4870 C   0  0  0  0  0  0  0  0  0  0  0  0
    8.4391    6.6439   21.0235 C   0  0  0  0  0  0  0  0  0  0  0  0
    9.6494   11.1353   20.4167 C   0  0  0  0  0  0  0  0  0  0  0  0
    8.1431    7.6829   21.9046 C   0  0  0  0  0  0  0  0  0  0  0  0
    7.7796   10.1314   21.5115 N   0  0  0  0  0  0  0  0  0  0  0  0
    9.2768    5.6183   21.4437 C   0  0  0  0  0  0  0  0  0  0  0  0
    8.6315    7.7322   23.1768 C   0  0  0  0  0  0  0  0  0  0  0  0
   13.0537    9.9821   20.5781 C   0  0  0  0  0  0  0  0  0  0  0  0
   10.3850    4.6575   23.2386 O   0  0  0  0  0  0  0  0  0  0  0  0
    4.2069    6.8450   20.7994 C   0  0  0  0  0  0  0  0  0  0  0  0
    3.0726   10.1043   19.8522 O   0  0  0  0  0  0  0  0  0  0  0  0
    5.5057    7.1196   21.1155 C   0  0  0  0  0  0  0  0  0  0  0  0
    7.0367   11.0229   21.9948 O   0  0  0  0  0  0  0  0  0  0  0  0
  1  8  4  0
  1 12  4  0
  2  9  1  0
  2 11  4  0
  2 25  4  0
  3 12  4  0
  3 14  1  0
  3 23  4  0
  4 13  4  0
  4 21  4  0
  4 24  1  0
  5  8  4  0
  5 23  4  0
  6 18  2  0
  7 15  4  0
  7 16  1  0
  7 27  4  0
  8 18  1  0
 10 18  1  0
 10 20  1  0
 11 15  4  0
 11 26  1  0
 13 22  4  0
 16 19  1  0
 16 20  2  0
 17 19  4  0
 17 21  4  0
 19 22  4  0
 20 28  1  0
 25 27  4  0
M  END
$$$$

 Created by Python create_sdf_string function

 28 30  0  0  0  0  0  0  0  0999 V2000
   11.4592   11.2893   18.7941 C   0  0  0  0  0  0  0  0  0  0  0  0
    3.4202    7.9009   20.3866 C   0  0  0  0  0  0  0  0  0  0  0  0
   13.5280   10.3522   19.3586 C   0  0  0  0  0  0  0  0  0  0  0  0
    9.6923    5.6468   22.7891 C   0  0  0  0  0  0  0  0  0  0  0  0
   11.7756   10.2554   20.8841 N   0  0  0  0  0  0  0  0  0  0  0  0
    8.9876   11.9370   19.8757 O   0  0  0  0  0  0  0  0  0  0  0  0
    6.0167    8.4478   21.1089 C   0  0  0  0  0  0  0  0  0  0  0  0
   11.0002   10.8890   20.0262 C   0  0  0  0  0  0  0  0  0  0  0  0
    2.1721    7.7393   20.0315 O   0  0  0  0  0  0  0  0  0  0  0  0
    9.1107   10.3880   21.3769 N   0  0  0  0  0  0  0  0  0  0  0  0
    3.9102    9.2008   20.3124 C   0  0  0  0  0  0  0  0  0  0  0  0
   12.7292   10.9960   18.4597 C   0  0  0  0  0  0  0  0  0  0  0  0
    9.3798    6.6793   23.6625 C   0  0  0  0  0  0  0  0  0  0  0  0
   14.7425   10.0739   19.0802 O   0  0  0  0  0  0  0  0  0  0  0  0
    5.1894    9.4673   20.7118 C   0  0  0  0  0  0  0  0  0  0  0  0
    7.3773    8.8224   21.4870 C   0  0  0  0  0  0  0  0  0  0  0  0
    8.4391    6.6439   21.0235 C   0  0  0  0  0  0  0  0  0  0  0  0
    9.6494   11.1353   20.4167 C   0  0  0  0  0  0  0  0  0  0  0  0
    8.1431    7.6829   21.9046 C   0  0  0  0  0  0  0  0  0  0  0  0
    7.7796   10.1314   21.5115 N   0  0  0  0  0  0  0  0  0  0  0  0
    9.2768    5.6183   21.4437 C   0  0  0  0  0  0  0  0  0  0  0  0
    8.6315    7.7322   23.1768 C   0  0  0  0  0  0  0  0  0  0  0  0
   13.0537    9.9821   20.5781 C   0  0  0  0  0  0  0  0  0  0  0  0
   10.3850    4.6575   23.2386 O   0  0  0  0  0  0  0  0  0  0  0  0
    4.2069    6.8450   20.7994 C   0  0  0  0  0  0  0  0  0  0  0  0
    3.0726   10.1043   19.8522 O   0  0  0  0  0  0  0  0  0  0  0  0
    5.5057    7.1196   21.1155 C   0  0  0  0  0  0  0  0  0  0  0  0
    7.0367   11.0229   21.9948 O   0  0  0  0  0  0  0  0  0  0  0  0
  1  8  4  0
  1 12  4  0
  2  9  1  0
  2 11  4  0
  2 25  4  0
  3 12  4  0
  3 14  1  0
  3 23  4  0
  4 13  4  0
  4 21  4  0
  4 24  1  0
  5  8  4  0
  5 23  4  0
  6 18  2  0
  7 15  4  0
  7 16  1  0
  7 27  4  0
  8 18  1  0
 10 18  1  0
 10 20  1  0
 11 15  4  0
 11 26  1  0
 13 22  4  0
 16 19  1  0
 16 20  2  0
 17 19  4  0
 17 21  4  0
 19 22  4  0
 20 28  1  0
 25 27  4  0
M  END
$$$$

 Created by Python create_sdf_string function

 28 30  0  0  0  0  0  0  0  0999 V2000
   11.4592   11.2893   18.7941 C   0  0  0  0  0  0  0  0  0  0  0  0
    3.4202    7.9009   20.3866 C   0  0  0  0  0  0  0  0  0  0  0  0
   13.5280   10.3522   19.3586 C   0  0  0  0  0  0  0  0  0  0  0  0
    9.6923    5.6468   22.7891 C   0  0  0  0  0  0  0  0  0  0  0  0
   11.7756   10.2554   20.8841 N   0  0  0  0  0  0  0  0  0  0  0  0
    8.9876   11.9370   19.8757 O   0  0  0  0  0  0  0  0  0  0  0  0
    6.0167    8.4478   21.1089 C   0  0  0  0  0  0  0  0  0  0  0  0
   11.0002   10.8890   20.0262 C   0  0  0  0  0  0  0  0  0  0  0  0
    2.1721    7.7393   20.0315 O   0  0  0  0  0  0  0  0  0  0  0  0
    9.1107   10.3880   21.3769 N   0  0  0  0  0  0  0  0  0  0  0  0
    3.9102    9.2008   20.3124 C   0  0  0  0  0  0  0  0  0  0  0  0
   12.7292   10.9960   18.4597 C   0  0  0  0  0  0  0  0  0  0  0  0
    9.3798    6.6793   23.6625 C   0  0  0  0  0  0  0  0  0  0  0  0
   14.7425   10.0739   19.0802 O   0  0  0  0  0  0  0  0  0  0  0  0
    5.1894    9.4673   20.7118 C   0  0  0  0  0  0  0  0  0  0  0  0
    7.3773    8.8224   21.4870 C   0  0  0  0  0  0  0  0  0  0  0  0
    8.4391    6.6439   21.0235 C   0  0  0  0  0  0  0  0  0  0  0  0
    9.6494   11.1353   20.4167 C   0  0  0  0  0  0  0  0  0  0  0  0
    8.1431    7.6829   21.9046 C   0  0  0  0  0  0  0  0  0  0  0  0
    7.7796   10.1314   21.5115 N   0  0  0  0  0  0  0  0  0  0  0  0
    9.2768    5.6183   21.4437 C   0  0  0  0  0  0  0  0  0  0  0  0
    8.6315    7.7322   23.1768 C   0  0  0  0  0  0  0  0  0  0  0  0
   13.0537    9.9821   20.5781 C   0  0  0  0  0  0  0  0  0  0  0  0
   10.3850    4.6575   23.2386 O   0  0  0  0  0  0  0  0  0  0  0  0
    4.2069    6.8450   20.7994 C   0  0  0  0  0  0  0  0  0  0  0  0
    3.0726   10.1043   19.8522 O   0  0  0  0  0  0  0  0  0  0  0  0
    5.5057    7.1196   21.1155 C   0  0  0  0  0  0  0  0  0  0  0  0
    7.0367   11.0229   21.9948 O   0  0  0  0  0  0  0  0  0  0  0  0
  1  8  4  0
  1 12  4  0
  2  9  1  0
  2 11  4  0
  2 25  4  0
  3 12  4  0
  3 14  1  0
  3 23  4  0
  4 13  4  0
  4 21  4  0
  4 24  1  0
  5  8  4  0
  5 23  4  0
  6 18  2  0
  7 15  4  0
  7 16  1  0
  7 27  4  0
  8 18  1  0
 10 18  1  0
 10 20  1  0
 11 15  4  0
 11 26  1  0
 13 22  4  0
 16 19  1  0
 16 20  2  0
 17 19  4  0
 17 21  4  0
 19 22  4  0
 20 28  1  0
 25 27  4  0
M  END
$$$$

 Created by Python create_sdf_string function

 28 30  0  0  0  0  0  0  0  0999 V2000
   11.4592   11.2893   18.7941 C   0  0  0  0  0  0  0  0  0  0  0  0
    3.4202    7.9009   20.3866 C   0  0  0  0  0  0  0  0  0  0  0  0
   13.5280   10.3522   19.3586 C   0  0  0  0  0  0  0  0  0  0  0  0
    9.6923    5.6468   22.7891 C   0  0  0  0  0  0  0  0  0  0  0  0
   11.7756   10.2554   20.8841 N   0  0  0  0  0  0  0  0  0  0  0  0
    8.9876   11.9370   19.8757 O   0  0  0  0  0  0  0  0  0  0  0  0
    6.0167    8.4478   21.1089 C   0  0  0  0  0  0  0  0  0  0  0  0
   11.0002   10.8890   20.0262 C   0  0  0  0  0  0  0  0  0  0  0  0
    2.1721    7.7393   20.0315 O   0  0  0  0  0  0  0  0  0  0  0  0
    9.1107   10.3880   21.3769 N   0  0  0  0  0  0  0  0  0  0  0  0
    3.9102    9.2008   20.3124 C   0  0  0  0  0  0  0  0  0  0  0  0
   12.7292   10.9960   18.4597 C   0  0  0  0  0  0  0  0  0  0  0  0
    9.3798    6.6793   23.6625 C   0  0  0  0  0  0  0  0  0  0  0  0
   14.7425   10.0739   19.0802 O   0  0  0  0  0  0  0  0  0  0  0  0
    5.1894    9.4673   20.7118 C   0  0  0  0  0  0  0  0  0  0  0  0
    7.3773    8.8224   21.4870 C   0  0  0  0  0  0  0  0  0  0  0  0
    8.4391    6.6439   21.0235 C   0  0  0  0  0  0  0  0  0  0  0  0
    9.6494   11.1353   20.4167 C   0  0  0  0  0  0  0  0  0  0  0  0
    8.1431    7.6829   21.9046 C   0  0  0  0  0  0  0  0  0  0  0  0
    7.7796   10.1314   21.5115 N   0  0  0  0  0  0  0  0  0  0  0  0
    9.2768    5.6183   21.4437 C   0  0  0  0  0  0  0  0  0  0  0  0
    8.6315    7.7322   23.1768 C   0  0  0  0  0  0  0  0  0  0  0  0
   13.0537    9.9821   20.5781 C   0  0  0  0  0  0  0  0  0  0  0  0
   10.3850    4.6575   23.2386 O   0  0  0  0  0  0  0  0  0  0  0  0
    4.2069    6.8450   20.7994 C   0  0  0  0  0  0  0  0  0  0  0  0
    3.0726   10.1043   19.8522 O   0  0  0  0  0  0  0  0  0  0  0  0
    5.5057    7.1196   21.1155 C   0  0  0  0  0  0  0  0  0  0  0  0
    7.0367   11.0229   21.9948 O   0  0  0  0  0  0  0  0  0  0  0  0
  1  8  4  0
  1 12  4  0
  2  9  1  0
  2 11  4  0
  2 25  4  0
  3 12  4  0
  3 14  1  0
  3 23  4  0
  4 13  4  0
  4 21  4  0
  4 24  1  0
  5  8  4  0
  5 23  4  0
  6 18  2  0
  7 15  4  0
  7 16  1  0
  7 27  4  0
  8 18  1  0
 10 18  1  0
 10 20  1  0
 11 15  4  0
 11 26  1  0
 13 22  4  0
 16 19  1  0
 16 20  2  0
 17 19  4  0
 17 21  4  0
 19 22  4  0
 20 28  1  0
 25 27  4  0
M  END
$$$$

 Created by Python create_sdf_string function

 28 30  0  0  0  0  0  0  0  0999 V2000
   11.4592   11.2893   18.7941 C   0  0  0  0  0  0  0  0  0  0  0  0
    3.4202    7.9009   20.3866 C   0  0  0  0  0  0  0  0  0  0  0  0
   13.5280   10.3522   19.3586 C   0  0  0  0  0  0  0  0  0  0  0  0
    9.6923    5.6468   22.7891 C   0  0  0  0  0  0  0  0  0  0  0  0
   11.7756   10.2554   20.8841 N   0  0  0  0  0  0  0  0  0  0  0  0
    8.9876   11.9370   19.8757 O   0  0  0  0  0  0  0  0  0  0  0  0
    6.0167    8.4478   21.1089 C   0  0  0  0  0  0  0  0  0  0  0  0
   11.0002   10.8890   20.0262 C   0  0  0  0  0  0  0  0  0  0  0  0
    2.1721    7.7393   20.0315 O   0  0  0  0  0  0  0  0  0  0  0  0
    9.1107   10.3880   21.3769 N   0  0  0  0  0  0  0  0  0  0  0  0
    3.9102    9.2008   20.3124 C   0  0  0  0  0  0  0  0  0  0  0  0
   12.7292   10.9960   18.4597 C   0  0  0  0  0  0  0  0  0  0  0  0
    9.3798    6.6793   23.6625 C   0  0  0  0  0  0  0  0  0  0  0  0
   14.7425   10.0739   19.0802 O   0  0  0  0  0  0  0  0  0  0  0  0
    5.1894    9.4673   20.7118 C   0  0  0  0  0  0  0  0  0  0  0  0
    7.3773    8.8224   21.4870 C   0  0  0  0  0  0  0  0  0  0  0  0
    8.4391    6.6439   21.0235 C   0  0  0  0  0  0  0  0  0  0  0  0
    9.6494   11.1353   20.4167 C   0  0  0  0  0  0  0  0  0  0  0  0
    8.1431    7.6829   21.9046 C   0  0  0  0  0  0  0  0  0  0  0  0
    7.7796   10.1314   21.5115 N   0  0  0  0  0  0  0  0  0  0  0  0
    9.2768    5.6183   21.4437 C   0  0  0  0  0  0  0  0  0  0  0  0
    8.6315    7.7322   23.1768 C   0  0  0  0  0  0  0  0  0  0  0  0
   13.0537    9.9821   20.5781 C   0  0  0  0  0  0  0  0  0  0  0  0
   10.3850    4.6575   23.2386 O   0  0  0  0  0  0  0  0  0  0  0  0
    4.2069    6.8450   20.7994 C   0  0  0  0  0  0  0  0  0  0  0  0
    3.0726   10.1043   19.8522 O   0  0  0  0  0  0  0  0  0  0  0  0
    5.5057    7.1196   21.1155 C   0  0  0  0  0  0  0  0  0  0  0  0
    7.0367   11.0229   21.9948 O   0  0  0  0  0  0  0  0  0  0  0  0
  1  8  4  0
  1 12  4  0
  2  9  1  0
  2 11  4  0
  2 25  4  0
  3 12  4  0
  3 14  1  0
  3 23  4  0
  4 13  4  0
  4 21  4  0
  4 24  1  0
  5  8  4  0
  5 23  4  0
  6 18  2  0
  7 15  4  0
  7 16  1  0
  7 27  4  0
  8 18  1  0
 10 18  1  0
 10 20  1  0
 11 15  4  0
 11 26  1  0
 13 22  4  0
 16 19  1  0
 16 20  2  0
 17 19  4  0
 17 21  4  0
 19 22  4  0
 20 28  1  0
 25 27  4  0
M  END
$$$$

 Created by Python create_sdf_string function

 28 30  0  0  0  0  0  0  0  0999 V2000
   11.4592   11.2893   18.7941 C   0  0  0  0  0  0  0  0  0  0  0  0
    3.4202    7.9009   20.3866 C   0  0  0  0  0  0  0  0  0  0  0  0
   13.5280   10.3522   19.3586 C   0  0  0  0  0  0  0  0  0  0  0  0
    9.6923    5.6468   22.7891 C   0  0  0  0  0  0  0  0  0  0  0  0
   11.7756   10.2554   20.8841 N   0  0  0  0  0  0  0  0  0  0  0  0
    8.9876   11.9370   19.8757 O   0  0  0  0  0  0  0  0  0  0  0  0
    6.0167    8.4478   21.1089 C   0  0  0  0  0  0  0  0  0  0  0  0
   11.0002   10.8890   20.0262 C   0  0  0  0  0  0  0  0  0  0  0  0
    2.1721    7.7393   20.0315 O   0  0  0  0  0  0  0  0  0  0  0  0
    9.1107   10.3880   21.3769 N   0  0  0  0  0  0  0  0  0  0  0  0
    3.9102    9.2008   20.3124 C   0  0  0  0  0  0  0  0  0  0  0  0
   12.7292   10.9960   18.4597 C   0  0  0  0  0  0  0  0  0  0  0  0
    9.3798    6.6793   23.6625 C   0  0  0  0  0  0  0  0  0  0  0  0
   14.7425   10.0739   19.0802 O   0  0  0  0  0  0  0  0  0  0  0  0
    5.1894    9.4673   20.7118 C   0  0  0  0  0  0  0  0  0  0  0  0
    7.3773    8.8224   21.4870 C   0  0  0  0  0  0  0  0  0  0  0  0
    8.4391    6.6439   21.0235 C   0  0  0  0  0  0  0  0  0  0  0  0
    9.6494   11.1353   20.4167 C   0  0  0  0  0  0  0  0  0  0  0  0
    8.1431    7.6829   21.9046 C   0  0  0  0  0  0  0  0  0  0  0  0
    7.7796   10.1314   21.5115 N   0  0  0  0  0  0  0  0  0  0  0  0
    9.2768    5.6183   21.4437 C   0  0  0  0  0  0  0  0  0  0  0  0
    8.6315    7.7322   23.1768 C   0  0  0  0  0  0  0  0  0  0  0  0
   13.0537    9.9821   20.5781 C   0  0  0  0  0  0  0  0  0  0  0  0
   10.3850    4.6575   23.2386 O   0  0  0  0  0  0  0  0  0  0  0  0
    4.2069    6.8450   20.7994 C   0  0  0  0  0  0  0  0  0  0  0  0
    3.0726   10.1043   19.8522 O   0  0  0  0  0  0  0  0  0  0  0  0
    5.5057    7.1196   21.1155 C   0  0  0  0  0  0  0  0  0  0  0  0
    7.0367   11.0229   21.9948 O   0  0  0  0  0  0  0  0  0  0  0  0
  1  8  4  0
  1 12  4  0
  2  9  1  0
  2 11  4  0
  2 25  4  0
  3 12  4  0
  3 14  1  0
  3 23  4  0
  4 13  4  0
  4 21  4  0
  4 24  1  0
  5  8  4  0
  5 23  4  0
  6 18  2  0
  7 15  4  0
  7 16  1  0
  7 27  4  0
  8 18  1  0
 10 18  1  0
 10 20  1  0
 11 15  4  0
 11 26  1  0
 13 22  4  0
 16 19  1  0
 16 20  2  0
 17 19  4  0
 17 21  4  0
 19 22  4  0
 20 28  1  0
 25 27  4  0
M  END
$$$$

 Created by Python create_sdf_string function

 28 30  0  0  0  0  0  0  0  0999 V2000
   11.4592   11.2893   18.7941 C   0  0  0  0  0  0  0  0  0  0  0  0
    3.4202    7.9009   20.3866 C   0  0  0  0  0  0  0  0  0  0  0  0
   13.5280   10.3522   19.3586 C   0  0  0  0  0  0  0  0  0  0  0  0
    9.6923    5.6468   22.7891 C   0  0  0  0  0  0  0  0  0  0  0  0
   11.7756   10.2554   20.8841 N   0  0  0  0  0  0  0  0  0  0  0  0
    8.9876   11.9370   19.8757 O   0  0  0  0  0  0  0  0  0  0  0  0
    6.0167    8.4478   21.1089 C   0  0  0  0  0  0  0  0  0  0  0  0
   11.0002   10.8890   20.0262 C   0  0  0  0  0  0  0  0  0  0  0  0
    2.1721    7.7393   20.0315 O   0  0  0  0  0  0  0  0  0  0  0  0
    9.1107   10.3880   21.3769 N   0  0  0  0  0  0  0  0  0  0  0  0
    3.9102    9.2008   20.3124 C   0  0  0  0  0  0  0  0  0  0  0  0
   12.7292   10.9960   18.4597 C   0  0  0  0  0  0  0  0  0  0  0  0
    9.3798    6.6793   23.6625 C   0  0  0  0  0  0  0  0  0  0  0  0
   14.7425   10.0739   19.0802 O   0  0  0  0  0  0  0  0  0  0  0  0
    5.1894    9.4673   20.7118 C   0  0  0  0  0  0  0  0  0  0  0  0
    7.3773    8.8224   21.4870 C   0  0  0  0  0  0  0  0  0  0  0  0
    8.4391    6.6439   21.0235 C   0  0  0  0  0  0  0  0  0  0  0  0
    9.6494   11.1353   20.4167 C   0  0  0  0  0  0  0  0  0  0  0  0
    8.1431    7.6829   21.9046 C   0  0  0  0  0  0  0  0  0  0  0  0
    7.7796   10.1314   21.5115 N   0  0  0  0  0  0  0  0  0  0  0  0
    9.2768    5.6183   21.4437 C   0  0  0  0  0  0  0  0  0  0  0  0
    8.6315    7.7322   23.1768 C   0  0  0  0  0  0  0  0  0  0  0  0
   13.0537    9.9821   20.5781 C   0  0  0  0  0  0  0  0  0  0  0  0
   10.3850    4.6575   23.2386 O   0  0  0  0  0  0  0  0  0  0  0  0
    4.2069    6.8450   20.7994 C   0  0  0  0  0  0  0  0  0  0  0  0
    3.0726   10.1043   19.8522 O   0  0  0  0  0  0  0  0  0  0  0  0
    5.5057    7.1196   21.1155 C   0  0  0  0  0  0  0  0  0  0  0  0
    7.0367   11.0229   21.9948 O   0  0  0  0  0  0  0  0  0  0  0  0
  1  8  4  0
  1 12  4  0
  2  9  1  0
  2 11  4  0
  2 25  4  0
  3 12  4  0
  3 14  1  0
  3 23  4  0
  4 13  4  0
  4 21  4  0
  4 24  1  0
  5  8  4  0
  5 23  4  0
  6 18  2  0
  7 15  4  0
  7 16  1  0
  7 27  4  0
  8 18  1  0
 10 18  1  0
 10 20  1  0
 11 15  4  0
 11 26  1  0
 13 22  4  0
 16 19  1  0
 16 20  2  0
 17 19  4  0
 17 21  4  0
 19 22  4  0
 20 28  1  0
 25 27  4  0
M  END
$$$$

 Created by Python create_sdf_string function

 28 30  0  0  0  0  0  0  0  0999 V2000
   11.4592   11.2893   18.7941 C   0  0  0  0  0  0  0  0  0  0  0  0
    3.4202    7.9009   20.3866 C   0  0  0  0  0  0  0  0  0  0  0  0
   13.5280   10.3522   19.3586 C   0  0  0  0  0  0  0  0  0  0  0  0
    9.6923    5.6468   22.7891 C   0  0  0  0  0  0  0  0  0  0  0  0
   11.7756   10.2554   20.8841 N   0  0  0  0  0  0  0  0  0  0  0  0
    8.9876   11.9370   19.8757 O   0  0  0  0  0  0  0  0  0  0  0  0
    6.0167    8.4478   21.1089 C   0  0  0  0  0  0  0  0  0  0  0  0
   11.0002   10.8890   20.0262 C   0  0  0  0  0  0  0  0  0  0  0  0
    2.1721    7.7393   20.0315 O   0  0  0  0  0  0  0  0  0  0  0  0
    9.1107   10.3880   21.3769 N   0  0  0  0  0  0  0  0  0  0  0  0
    3.9102    9.2008   20.3124 C   0  0  0  0  0  0  0  0  0  0  0  0
   12.7292   10.9960   18.4597 C   0  0  0  0  0  0  0  0  0  0  0  0
    9.3798    6.6793   23.6625 C   0  0  0  0  0  0  0  0  0  0  0  0
   14.7425   10.0739   19.0802 O   0  0  0  0  0  0  0  0  0  0  0  0
    5.1894    9.4673   20.7118 C   0  0  0  0  0  0  0  0  0  0  0  0
    7.3773    8.8224   21.4870 C   0  0  0  0  0  0  0  0  0  0  0  0
    8.4391    6.6439   21.0235 C   0  0  0  0  0  0  0  0  0  0  0  0
    9.6494   11.1353   20.4167 C   0  0  0  0  0  0  0  0  0  0  0  0
    8.1431    7.6829   21.9046 C   0  0  0  0  0  0  0  0  0  0  0  0
    7.7796   10.1314   21.5115 N   0  0  0  0  0  0  0  0  0  0  0  0
    9.2768    5.6183   21.4437 C   0  0  0  0  0  0  0  0  0  0  0  0
    8.6315    7.7322   23.1768 C   0  0  0  0  0  0  0  0  0  0  0  0
   13.0537    9.9821   20.5781 C   0  0  0  0  0  0  0  0  0  0  0  0
   10.3850    4.6575   23.2386 O   0  0  0  0  0  0  0  0  0  0  0  0
    4.2069    6.8450   20.7994 C   0  0  0  0  0  0  0  0  0  0  0  0
    3.0726   10.1043   19.8522 O   0  0  0  0  0  0  0  0  0  0  0  0
    5.5057    7.1196   21.1155 C   0  0  0  0  0  0  0  0  0  0  0  0
    7.0367   11.0229   21.9948 O   0  0  0  0  0  0  0  0  0  0  0  0
  1  8  4  0
  1 12  4  0
  2  9  1  0
  2 11  4  0
  2 25  4  0
  3 12  4  0
  3 14  1  0
  3 23  4  0
  4 13  4  0
  4 21  4  0
  4 24  1  0
  5  8  4  0
  5 23  4  0
  6 18  2  0
  7 15  4  0
  7 16  1  0
  7 27  4  0
  8 18  1  0
 10 18  1  0
 10 20  1  0
 11 15  4  0
 11 26  1  0
 13 22  4  0
 16 19  1  0
 16 20  2  0
 17 19  4  0
 17 21  4  0
 19 22  4  0
 20 28  1  0
 25 27  4  0
M  END
$$$$

 Created by Python create_sdf_string function

 28 30  0  0  0  0  0  0  0  0999 V2000
   11.4592   11.2893   18.7941 C   0  0  0  0  0  0  0  0  0  0  0  0
    3.4202    7.9009   20.3866 C   0  0  0  0  0  0  0  0  0  0  0  0
   13.5280   10.3522   19.3586 C   0  0  0  0  0  0  0  0  0  0  0  0
    9.6923    5.6468   22.7891 C   0  0  0  0  0  0  0  0  0  0  0  0
   11.7756   10.2554   20.8841 N   0  0  0  0  0  0  0  0  0  0  0  0
    8.9876   11.9370   19.8757 O   0  0  0  0  0  0  0  0  0  0  0  0
    6.0167    8.4478   21.1089 C   0  0  0  0  0  0  0  0  0  0  0  0
   11.0002   10.8890   20.0262 C   0  0  0  0  0  0  0  0  0  0  0  0
    2.1721    7.7393   20.0315 O   0  0  0  0  0  0  0  0  0  0  0  0
    9.1107   10.3880   21.3769 N   0  0  0  0  0  0  0  0  0  0  0  0
    3.9102    9.2008   20.3124 C   0  0  0  0  0  0  0  0  0  0  0  0
   12.7292   10.9960   18.4597 C   0  0  0  0  0  0  0  0  0  0  0  0
    9.3798    6.6793   23.6625 C   0  0  0  0  0  0  0  0  0  0  0  0
   14.7425   10.0739   19.0802 O   0  0  0  0  0  0  0  0  0  0  0  0
    5.1894    9.4673   20.7118 C   0  0  0  0  0  0  0  0  0  0  0  0
    7.3773    8.8224   21.4870 C   0  0  0  0  0  0  0  0  0  0  0  0
    8.4391    6.6439   21.0235 C   0  0  0  0  0  0  0  0  0  0  0  0
    9.6494   11.1353   20.4167 C   0  0  0  0  0  0  0  0  0  0  0  0
    8.1431    7.6829   21.9046 C   0  0  0  0  0  0  0  0  0  0  0  0
    7.7796   10.1314   21.5115 N   0  0  0  0  0  0  0  0  0  0  0  0
    9.2768    5.6183   21.4437 C   0  0  0  0  0  0  0  0  0  0  0  0
    8.6315    7.7322   23.1768 C   0  0  0  0  0  0  0  0  0  0  0  0
   13.0537    9.9821   20.5781 C   0  0  0  0  0  0  0  0  0  0  0  0
   10.3850    4.6575   23.2386 O   0  0  0  0  0  0  0  0  0  0  0  0
    4.2069    6.8450   20.7994 C   0  0  0  0  0  0  0  0  0  0  0  0
    3.0726   10.1043   19.8522 O   0  0  0  0  0  0  0  0  0  0  0  0
    5.5057    7.1196   21.1155 C   0  0  0  0  0  0  0  0  0  0  0  0
    7.0367   11.0229   21.9948 O   0  0  0  0  0  0  0  0  0  0  0  0
  1  8  4  0
  1 12  4  0
  2  9  1  0
  2 11  4  0
  2 25  4  0
  3 12  4  0
  3 14  1  0
  3 23  4  0
  4 13  4  0
  4 21  4  0
  4 24  1  0
  5  8  4  0
  5 23  4  0
  6 18  2  0
  7 15  4  0
  7 16  1  0
  7 27  4  0
  8 18  1  0
 10 18  1  0
 10 20  1  0
 11 15  4  0
 11 26  1  0
 13 22  4  0
 16 19  1  0
 16 20  2  0
 17 19  4  0
 17 21  4  0
 19 22  4  0
 20 28  1  0
 25 27  4  0
M  END
$$$$

 Created by Python create_sdf_string function

 28 30  0  0  0  0  0  0  0  0999 V2000
   11.4592   11.2893   18.7941 C   0  0  0  0  0  0  0  0  0  0  0  0
    3.4202    7.9009   20.3866 C   0  0  0  0  0  0  0  0  0  0  0  0
   13.5280   10.3522   19.3586 C   0  0  0  0  0  0  0  0  0  0  0  0
    9.6923    5.6468   22.7891 C   0  0  0  0  0  0  0  0  0  0  0  0
   11.7756   10.2554   20.8841 N   0  0  0  0  0  0  0  0  0  0  0  0
    8.9876   11.9370   19.8757 O   0  0  0  0  0  0  0  0  0  0  0  0
    6.0167    8.4478   21.1089 C   0  0  0  0  0  0  0  0  0  0  0  0
   11.0002   10.8890   20.0262 C   0  0  0  0  0  0  0  0  0  0  0  0
    2.1721    7.7393   20.0315 O   0  0  0  0  0  0  0  0  0  0  0  0
    9.1107   10.3880   21.3769 N   0  0  0  0  0  0  0  0  0  0  0  0
    3.9102    9.2008   20.3124 C   0  0  0  0  0  0  0  0  0  0  0  0
   12.7292   10.9960   18.4597 C   0  0  0  0  0  0  0  0  0  0  0  0
    9.3798    6.6793   23.6625 C   0  0  0  0  0  0  0  0  0  0  0  0
   14.7425   10.0739   19.0802 O   0  0  0  0  0  0  0  0  0  0  0  0
    5.1894    9.4673   20.7118 C   0  0  0  0  0  0  0  0  0  0  0  0
    7.3773    8.8224   21.4870 C   0  0  0  0  0  0  0  0  0  0  0  0
    8.4391    6.6439   21.0235 C   0  0  0  0  0  0  0  0  0  0  0  0
    9.6494   11.1353   20.4167 C   0  0  0  0  0  0  0  0  0  0  0  0
    8.1431    7.6829   21.9046 C   0  0  0  0  0  0  0  0  0  0  0  0
    7.7796   10.1314   21.5115 N   0  0  0  0  0  0  0  0  0  0  0  0
    9.2768    5.6183   21.4437 C   0  0  0  0  0  0  0  0  0  0  0  0
    8.6315    7.7322   23.1768 C   0  0  0  0  0  0  0  0  0  0  0  0
   13.0537    9.9821   20.5781 C   0  0  0  0  0  0  0  0  0  0  0  0
   10.3850    4.6575   23.2386 O   0  0  0  0  0  0  0  0  0  0  0  0
    4.2069    6.8450   20.7994 C   0  0  0  0  0  0  0  0  0  0  0  0
    3.0726   10.1043   19.8522 O   0  0  0  0  0  0  0  0  0  0  0  0
    5.5057    7.1196   21.1155 C   0  0  0  0  0  0  0  0  0  0  0  0
    7.0367   11.0229   21.9948 O   0  0  0  0  0  0  0  0  0  0  0  0
  1  8  4  0
  1 12  4  0
  2  9  1  0
  2 11  4  0
  2 25  4  0
  3 12  4  0
  3 14  1  0
  3 23  4  0
  4 13  4  0
  4 21  4  0
  4 24  1  0
  5  8  4  0
  5 23  4  0
  6 18  2  0
  7 15  4  0
  7 16  1  0
  7 27  4  0
  8 18  1  0
 10 18  1  0
 10 20  1  0
 11 15  4  0
 11 26  1  0
 13 22  4  0
 16 19  1  0
 16 20  2  0
 17 19  4  0
 17 21  4  0
 19 22  4  0
 20 28  1  0
 25 27  4  0
M  END
$$$$

 Created by Python create_sdf_string function

 28 30  0  0  0  0  0  0  0  0999 V2000
   11.4592   11.2893   18.7941 C   0  0  0  0  0  0  0  0  0  0  0  0
    3.4202    7.9009   20.3866 C   0  0  0  0  0  0  0  0  0  0  0  0
   13.5280   10.3522   19.3586 C   0  0  0  0  0  0  0  0  0  0  0  0
    9.6923    5.6468   22.7891 C   0  0  0  0  0  0  0  0  0  0  0  0
   11.7756   10.2554   20.8841 N   0  0  0  0  0  0  0  0  0  0  0  0
    8.9876   11.9370   19.8757 O   0  0  0  0  0  0  0  0  0  0  0  0
    6.0167    8.4478   21.1089 C   0  0  0  0  0  0  0  0  0  0  0  0
   11.0002   10.8890   20.0262 C   0  0  0  0  0  0  0  0  0  0  0  0
    2.1721    7.7393   20.0315 O   0  0  0  0  0  0  0  0  0  0  0  0
    9.1107   10.3880   21.3769 N   0  0  0  0  0  0  0  0  0  0  0  0
    3.9102    9.2008   20.3124 C   0  0  0  0  0  0  0  0  0  0  0  0
   12.7292   10.9960   18.4597 C   0  0  0  0  0  0  0  0  0  0  0  0
    9.3798    6.6793   23.6625 C   0  0  0  0  0  0  0  0  0  0  0  0
   14.7425   10.0739   19.0802 O   0  0  0  0  0  0  0  0  0  0  0  0
    5.1894    9.4673   20.7118 C   0  0  0  0  0  0  0  0  0  0  0  0
    7.3773    8.8224   21.4870 C   0  0  0  0  0  0  0  0  0  0  0  0
    8.4391    6.6439   21.0235 C   0  0  0  0  0  0  0  0  0  0  0  0
    9.6494   11.1353   20.4167 C   0  0  0  0  0  0  0  0  0  0  0  0
    8.1431    7.6829   21.9046 C   0  0  0  0  0  0  0  0  0  0  0  0
    7.7796   10.1314   21.5115 N   0  0  0  0  0  0  0  0  0  0  0  0
    9.2768    5.6183   21.4437 C   0  0  0  0  0  0  0  0  0  0  0  0
    8.6315    7.7322   23.1768 C   0  0  0  0  0  0  0  0  0  0  0  0
   13.0537    9.9821   20.5781 C   0  0  0  0  0  0  0  0  0  0  0  0
   10.3850    4.6575   23.2386 O   0  0  0  0  0  0  0  0  0  0  0  0
    4.2069    6.8450   20.7994 C   0  0  0  0  0  0  0  0  0  0  0  0
    3.0726   10.1043   19.8522 O   0  0  0  0  0  0  0  0  0  0  0  0
    5.5057    7.1196   21.1155 C   0  0  0  0  0  0  0  0  0  0  0  0
    7.0367   11.0229   21.9948 O   0  0  0  0  0  0  0  0  0  0  0  0
  1  8  4  0
  1 12  4  0
  2  9  1  0
  2 11  4  0
  2 25  4  0
  3 12  4  0
  3 14  1  0
  3 23  4  0
  4 13  4  0
  4 21  4  0
  4 24  1  0
  5  8  4  0
  5 23  4  0
  6 18  2  0
  7 15  4  0
  7 16  1  0
  7 27  4  0
  8 18  1  0
 10 18  1  0
 10 20  1  0
 11 15  4  0
 11 26  1  0
 13 22  4  0
 16 19  1  0
 16 20  2  0
 17 19  4  0
 17 21  4  0
 19 22  4  0
 20 28  1  0
 25 27  4  0
M  END
$$$$

 Created by Python create_sdf_string function

 28 30  0  0  0  0  0  0  0  0999 V2000
   11.4592   11.2893   18.7941 C   0  0  0  0  0  0  0  0  0  0  0  0
    3.4202    7.9009   20.3866 C   0  0  0  0  0  0  0  0  0  0  0  0
   13.5280   10.3522   19.3586 C   0  0  0  0  0  0  0  0  0  0  0  0
    9.6923    5.6468   22.7891 C   0  0  0  0  0  0  0  0  0  0  0  0
   11.7756   10.2554   20.8841 N   0  0  0  0  0  0  0  0  0  0  0  0
    8.9876   11.9370   19.8757 O   0  0  0  0  0  0  0  0  0  0  0  0
    6.0167    8.4478   21.1089 C   0  0  0  0  0  0  0  0  0  0  0  0
   11.0002   10.8890   20.0262 C   0  0  0  0  0  0  0  0  0  0  0  0
    2.1721    7.7393   20.0315 O   0  0  0  0  0  0  0  0  0  0  0  0
    9.1107   10.3880   21.3769 N   0  0  0  0  0  0  0  0  0  0  0  0
    3.9102    9.2008   20.3124 C   0  0  0  0  0  0  0  0  0  0  0  0
   12.7292   10.9960   18.4597 C   0  0  0  0  0  0  0  0  0  0  0  0
    9.3798    6.6793   23.6625 C   0  0  0  0  0  0  0  0  0  0  0  0
   14.7425   10.0739   19.0802 O   0  0  0  0  0  0  0  0  0  0  0  0
    5.1894    9.4673   20.7118 C   0  0  0  0  0  0  0  0  0  0  0  0
    7.3773    8.8224   21.4870 C   0  0  0  0  0  0  0  0  0  0  0  0
    8.4391    6.6439   21.0235 C   0  0  0  0  0  0  0  0  0  0  0  0
    9.6494   11.1353   20.4167 C   0  0  0  0  0  0  0  0  0  0  0  0
    8.1431    7.6829   21.9046 C   0  0  0  0  0  0  0  0  0  0  0  0
    7.7796   10.1314   21.5115 N   0  0  0  0  0  0  0  0  0  0  0  0
    9.2768    5.6183   21.4437 C   0  0  0  0  0  0  0  0  0  0  0  0
    8.6315    7.7322   23.1768 C   0  0  0  0  0  0  0  0  0  0  0  0
   13.0537    9.9821   20.5781 C   0  0  0  0  0  0  0  0  0  0  0  0
   10.3850    4.6575   23.2386 O   0  0  0  0  0  0  0  0  0  0  0  0
    4.2069    6.8450   20.7994 C   0  0  0  0  0  0  0  0  0  0  0  0
    3.0726   10.1043   19.8522 O   0  0  0  0  0  0  0  0  0  0  0  0
    5.5057    7.1196   21.1155 C   0  0  0  0  0  0  0  0  0  0  0  0
    7.0367   11.0229   21.9948 O   0  0  0  0  0  0  0  0  0  0  0  0
  1  8  4  0
  1 12  4  0
  2  9  1  0
  2 11  4  0
  2 25  4  0
  3 12  4  0
  3 14  1  0
  3 23  4  0
  4 13  4  0
  4 21  4  0
  4 24  1  0
  5  8  4  0
  5 23  4  0
  6 18  2  0
  7 15  4  0
  7 16  1  0
  7 27  4  0
  8 18  1  0
 10 18  1  0
 10 20  1  0
 11 15  4  0
 11 26  1  0
 13 22  4  0
 16 19  1  0
 16 20  2  0
 17 19  4  0
 17 21  4  0
 19 22  4  0
 20 28  1  0
 25 27  4  0
M  END
$$$$

 Created by Python create_sdf_string function

 28 30  0  0  0  0  0  0  0  0999 V2000
   11.4592   11.2893   18.7941 C   0  0  0  0  0  0  0  0  0  0  0  0
    3.4202    7.9009   20.3866 C   0  0  0  0  0  0  0  0  0  0  0  0
   13.5280   10.3522   19.3586 C   0  0  0  0  0  0  0  0  0  0  0  0
    9.6923    5.6468   22.7891 C   0  0  0  0  0  0  0  0  0  0  0  0
   11.7756   10.2554   20.8841 N   0  0  0  0  0  0  0  0  0  0  0  0
    8.9876   11.9370   19.8757 O   0  0  0  0  0  0  0  0  0  0  0  0
    6.0167    8.4478   21.1089 C   0  0  0  0  0  0  0  0  0  0  0  0
   11.0002   10.8890   20.0262 C   0  0  0  0  0  0  0  0  0  0  0  0
    2.1721    7.7393   20.0315 O   0  0  0  0  0  0  0  0  0  0  0  0
    9.1107   10.3880   21.3769 N   0  0  0  0  0  0  0  0  0  0  0  0
    3.9102    9.2008   20.3124 C   0  0  0  0  0  0  0  0  0  0  0  0
   12.7292   10.9960   18.4597 C   0  0  0  0  0  0  0  0  0  0  0  0
    9.3798    6.6793   23.6625 C   0  0  0  0  0  0  0  0  0  0  0  0
   14.7425   10.0739   19.0802 O   0  0  0  0  0  0  0  0  0  0  0  0
    5.1894    9.4673   20.7118 C   0  0  0  0  0  0  0  0  0  0  0  0
    7.3773    8.8224   21.4870 C   0  0  0  0  0  0  0  0  0  0  0  0
    8.4391    6.6439   21.0235 C   0  0  0  0  0  0  0  0  0  0  0  0
    9.6494   11.1353   20.4167 C   0  0  0  0  0  0  0  0  0  0  0  0
    8.1431    7.6829   21.9046 C   0  0  0  0  0  0  0  0  0  0  0  0
    7.7796   10.1314   21.5115 N   0  0  0  0  0  0  0  0  0  0  0  0
    9.2768    5.6183   21.4437 C   0  0  0  0  0  0  0  0  0  0  0  0
    8.6315    7.7322   23.1768 C   0  0  0  0  0  0  0  0  0  0  0  0
   13.0537    9.9821   20.5781 C   0  0  0  0  0  0  0  0  0  0  0  0
   10.3850    4.6575   23.2386 O   0  0  0  0  0  0  0  0  0  0  0  0
    4.2069    6.8450   20.7994 C   0  0  0  0  0  0  0  0  0  0  0  0
    3.0726   10.1043   19.8522 O   0  0  0  0  0  0  0  0  0  0  0  0
    5.5057    7.1196   21.1155 C   0  0  0  0  0  0  0  0  0  0  0  0
    7.0367   11.0229   21.9948 O   0  0  0  0  0  0  0  0  0  0  0  0
  1  8  4  0
  1 12  4  0
  2  9  1  0
  2 11  4  0
  2 25  4  0
  3 12  4  0
  3 14  1  0
  3 23  4  0
  4 13  4  0
  4 21  4  0
  4 24  1  0
  5  8  4  0
  5 23  4  0
  6 18  2  0
  7 15  4  0
  7 16  1  0
  7 27  4  0
  8 18  1  0
 10 18  1  0
 10 20  1  0
 11 15  4  0
 11 26  1  0
 13 22  4  0
 16 19  1  0
 16 20  2  0
 17 19  4  0
 17 21  4  0
 19 22  4  0
 20 28  1  0
 25 27  4  0
M  END
$$$$

 Created by Python create_sdf_string function

 28 30  0  0  0  0  0  0  0  0999 V2000
   11.4592   11.2893   18.7941 C   0  0  0  0  0  0  0  0  0  0  0  0
    3.4202    7.9009   20.3866 C   0  0  0  0  0  0  0  0  0  0  0  0
   13.5280   10.3522   19.3586 C   0  0  0  0  0  0  0  0  0  0  0  0
    9.6923    5.6468   22.7891 C   0  0  0  0  0  0  0  0  0  0  0  0
   11.7756   10.2554   20.8841 N   0  0  0  0  0  0  0  0  0  0  0  0
    8.9876   11.9370   19.8757 O   0  0  0  0  0  0  0  0  0  0  0  0
    6.0167    8.4478   21.1089 C   0  0  0  0  0  0  0  0  0  0  0  0
   11.0002   10.8890   20.0262 C   0  0  0  0  0  0  0  0  0  0  0  0
    2.1721    7.7393   20.0315 O   0  0  0  0  0  0  0  0  0  0  0  0
    9.1107   10.3880   21.3769 N   0  0  0  0  0  0  0  0  0  0  0  0
    3.9102    9.2008   20.3124 C   0  0  0  0  0  0  0  0  0  0  0  0
   12.7292   10.9960   18.4597 C   0  0  0  0  0  0  0  0  0  0  0  0
    9.3798    6.6793   23.6625 C   0  0  0  0  0  0  0  0  0  0  0  0
   14.7425   10.0739   19.0802 O   0  0  0  0  0  0  0  0  0  0  0  0
    5.1894    9.4673   20.7118 C   0  0  0  0  0  0  0  0  0  0  0  0
    7.3773    8.8224   21.4870 C   0  0  0  0  0  0  0  0  0  0  0  0
    8.4391    6.6439   21.0235 C   0  0  0  0  0  0  0  0  0  0  0  0
    9.6494   11.1353   20.4167 C   0  0  0  0  0  0  0  0  0  0  0  0
    8.1431    7.6829   21.9046 C   0  0  0  0  0  0  0  0  0  0  0  0
    7.7796   10.1314   21.5115 N   0  0  0  0  0  0  0  0  0  0  0  0
    9.2768    5.6183   21.4437 C   0  0  0  0  0  0  0  0  0  0  0  0
    8.6315    7.7322   23.1768 C   0  0  0  0  0  0  0  0  0  0  0  0
   13.0537    9.9821   20.5781 C   0  0  0  0  0  0  0  0  0  0  0  0
   10.3850    4.6575   23.2386 O   0  0  0  0  0  0  0  0  0  0  0  0
    4.2069    6.8450   20.7994 C   0  0  0  0  0  0  0  0  0  0  0  0
    3.0726   10.1043   19.8522 O   0  0  0  0  0  0  0  0  0  0  0  0
    5.5057    7.1196   21.1155 C   0  0  0  0  0  0  0  0  0  0  0  0
    7.0367   11.0229   21.9948 O   0  0  0  0  0  0  0  0  0  0  0  0
  1  8  4  0
  1 12  4  0
  2  9  1  0
  2 11  4  0
  2 25  4  0
  3 12  4  0
  3 14  1  0
  3 23  4  0
  4 13  4  0
  4 21  4  0
  4 24  1  0
  5  8  4  0
  5 23  4  0
  6 18  2  0
  7 15  4  0
  7 16  1  0
  7 27  4  0
  8 18  1  0
 10 18  1  0
 10 20  1  0
 11 15  4  0
 11 26  1  0
 13 22  4  0
 16 19  1  0
 16 20  2  0
 17 19  4  0
 17 21  4  0
 19 22  4  0
 20 28  1  0
 25 27  4  0
M  END
$$$$

 Created by Python create_sdf_string function

 28 30  0  0  0  0  0  0  0  0999 V2000
   11.4592   11.2893   18.7941 C   0  0  0  0  0  0  0  0  0  0  0  0
    3.4202    7.9009   20.3866 C   0  0  0  0  0  0  0  0  0  0  0  0
   13.5280   10.3522   19.3586 C   0  0  0  0  0  0  0  0  0  0  0  0
    9.6923    5.6468   22.7891 C   0  0  0  0  0  0  0  0  0  0  0  0
   11.7756   10.2554   20.8841 N   0  0  0  0  0  0  0  0  0  0  0  0
    8.9876   11.9370   19.8757 O   0  0  0  0  0  0  0  0  0  0  0  0
    6.0167    8.4478   21.1089 C   0  0  0  0  0  0  0  0  0  0  0  0
   11.0002   10.8890   20.0262 C   0  0  0  0  0  0  0  0  0  0  0  0
    2.1721    7.7393   20.0315 O   0  0  0  0  0  0  0  0  0  0  0  0
    9.1107   10.3880   21.3769 N   0  0  0  0  0  0  0  0  0  0  0  0
    3.9102    9.2008   20.3124 C   0  0  0  0  0  0  0  0  0  0  0  0
   12.7292   10.9960   18.4597 C   0  0  0  0  0  0  0  0  0  0  0  0
    9.3798    6.6793   23.6625 C   0  0  0  0  0  0  0  0  0  0  0  0
   14.7425   10.0739   19.0802 O   0  0  0  0  0  0  0  0  0  0  0  0
    5.1894    9.4673   20.7118 C   0  0  0  0  0  0  0  0  0  0  0  0
    7.3773    8.8224   21.4870 C   0  0  0  0  0  0  0  0  0  0  0  0
    8.4391    6.6439   21.0235 C   0  0  0  0  0  0  0  0  0  0  0  0
    9.6494   11.1353   20.4167 C   0  0  0  0  0  0  0  0  0  0  0  0
    8.1431    7.6829   21.9046 C   0  0  0  0  0  0  0  0  0  0  0  0
    7.7796   10.1314   21.5115 N   0  0  0  0  0  0  0  0  0  0  0  0
    9.2768    5.6183   21.4437 C   0  0  0  0  0  0  0  0  0  0  0  0
    8.6315    7.7322   23.1768 C   0  0  0  0  0  0  0  0  0  0  0  0
   13.0537    9.9821   20.5781 C   0  0  0  0  0  0  0  0  0  0  0  0
   10.3850    4.6575   23.2386 O   0  0  0  0  0  0  0  0  0  0  0  0
    4.2069    6.8450   20.7994 C   0  0  0  0  0  0  0  0  0  0  0  0
    3.0726   10.1043   19.8522 O   0  0  0  0  0  0  0  0  0  0  0  0
    5.5057    7.1196   21.1155 C   0  0  0  0  0  0  0  0  0  0  0  0
    7.0367   11.0229   21.9948 O   0  0  0  0  0  0  0  0  0  0  0  0
  1  8  4  0
  1 12  4  0
  2  9  1  0
  2 11  4  0
  2 25  4  0
  3 12  4  0
  3 14  1  0
  3 23  4  0
  4 13  4  0
  4 21  4  0
  4 24  1  0
  5  8  4  0
  5 23  4  0
  6 18  2  0
  7 15  4  0
  7 16  1  0
  7 27  4  0
  8 18  1  0
 10 18  1  0
 10 20  1  0
 11 15  4  0
 11 26  1  0
 13 22  4  0
 16 19  1  0
 16 20  2  0
 17 19  4  0
 17 21  4  0
 19 22  4  0
 20 28  1  0
 25 27  4  0
M  END
$$$$

 Created by Python create_sdf_string function

 28 30  0  0  0  0  0  0  0  0999 V2000
   11.4592   11.2893   18.7941 C   0  0  0  0  0  0  0  0  0  0  0  0
    3.4202    7.9009   20.3866 C   0  0  0  0  0  0  0  0  0  0  0  0
   13.5280   10.3522   19.3586 C   0  0  0  0  0  0  0  0  0  0  0  0
    9.6923    5.6468   22.7891 C   0  0  0  0  0  0  0  0  0  0  0  0
   11.7756   10.2554   20.8841 N   0  0  0  0  0  0  0  0  0  0  0  0
    8.9876   11.9370   19.8757 O   0  0  0  0  0  0  0  0  0  0  0  0
    6.0167    8.4478   21.1089 C   0  0  0  0  0  0  0  0  0  0  0  0
   11.0002   10.8890   20.0262 C   0  0  0  0  0  0  0  0  0  0  0  0
    2.1721    7.7393   20.0315 O   0  0  0  0  0  0  0  0  0  0  0  0
    9.1107   10.3880   21.3769 N   0  0  0  0  0  0  0  0  0  0  0  0
    3.9102    9.2008   20.3124 C   0  0  0  0  0  0  0  0  0  0  0  0
   12.7292   10.9960   18.4597 C   0  0  0  0  0  0  0  0  0  0  0  0
    9.3798    6.6793   23.6625 C   0  0  0  0  0  0  0  0  0  0  0  0
   14.7425   10.0739   19.0802 O   0  0  0  0  0  0  0  0  0  0  0  0
    5.1894    9.4673   20.7118 C   0  0  0  0  0  0  0  0  0  0  0  0
    7.3773    8.8224   21.4870 C   0  0  0  0  0  0  0  0  0  0  0  0
    8.4391    6.6439   21.0235 C   0  0  0  0  0  0  0  0  0  0  0  0
    9.6494   11.1353   20.4167 C   0  0  0  0  0  0  0  0  0  0  0  0
    8.1431    7.6829   21.9046 C   0  0  0  0  0  0  0  0  0  0  0  0
    7.7796   10.1314   21.5115 N   0  0  0  0  0  0  0  0  0  0  0  0
    9.2768    5.6183   21.4437 C   0  0  0  0  0  0  0  0  0  0  0  0
    8.6315    7.7322   23.1768 C   0  0  0  0  0  0  0  0  0  0  0  0
   13.0537    9.9821   20.5781 C   0  0  0  0  0  0  0  0  0  0  0  0
   10.3850    4.6575   23.2386 O   0  0  0  0  0  0  0  0  0  0  0  0
    4.2069    6.8450   20.7994 C   0  0  0  0  0  0  0  0  0  0  0  0
    3.0726   10.1043   19.8522 O   0  0  0  0  0  0  0  0  0  0  0  0
    5.5057    7.1196   21.1155 C   0  0  0  0  0  0  0  0  0  0  0  0
    7.0367   11.0229   21.9948 O   0  0  0  0  0  0  0  0  0  0  0  0
  1  8  4  0
  1 12  4  0
  2  9  1  0
  2 11  4  0
  2 25  4  0
  3 12  4  0
  3 14  1  0
  3 23  4  0
  4 13  4  0
  4 21  4  0
  4 24  1  0
  5  8  4  0
  5 23  4  0
  6 18  2  0
  7 15  4  0
  7 16  1  0
  7 27  4  0
  8 18  1  0
 10 18  1  0
 10 20  1  0
 11 15  4  0
 11 26  1  0
 13 22  4  0
 16 19  1  0
 16 20  2  0
 17 19  4  0
 17 21  4  0
 19 22  4  0
 20 28  1  0
 25 27  4  0
M  END
$$$$

 Created by Python create_sdf_string function

 28 30  0  0  0  0  0  0  0  0999 V2000
   11.4592   11.2893   18.7941 C   0  0  0  0  0  0  0  0  0  0  0  0
    3.4202    7.9009   20.3866 C   0  0  0  0  0  0  0  0  0  0  0  0
   13.5280   10.3522   19.3586 C   0  0  0  0  0  0  0  0  0  0  0  0
    9.6923    5.6468   22.7891 C   0  0  0  0  0  0  0  0  0  0  0  0
   11.7756   10.2554   20.8841 N   0  0  0  0  0  0  0  0  0  0  0  0
    8.9876   11.9370   19.8757 O   0  0  0  0  0  0  0  0  0  0  0  0
    6.0167    8.4478   21.1089 C   0  0  0  0  0  0  0  0  0  0  0  0
   11.0002   10.8890   20.0262 C   0  0  0  0  0  0  0  0  0  0  0  0
    2.1721    7.7393   20.0315 O   0  0  0  0  0  0  0  0  0  0  0  0
    9.1107   10.3880   21.3769 N   0  0  0  0  0  0  0  0  0  0  0  0
    3.9102    9.2008   20.3124 C   0  0  0  0  0  0  0  0  0  0  0  0
   12.7292   10.9960   18.4597 C   0  0  0  0  0  0  0  0  0  0  0  0
    9.3798    6.6793   23.6625 C   0  0  0  0  0  0  0  0  0  0  0  0
   14.7425   10.0739   19.0802 O   0  0  0  0  0  0  0  0  0  0  0  0
    5.1894    9.4673   20.7118 C   0  0  0  0  0  0  0  0  0  0  0  0
    7.3773    8.8224   21.4870 C   0  0  0  0  0  0  0  0  0  0  0  0
    8.4391    6.6439   21.0235 C   0  0  0  0  0  0  0  0  0  0  0  0
    9.6494   11.1353   20.4167 C   0  0  0  0  0  0  0  0  0  0  0  0
    8.1431    7.6829   21.9046 C   0  0  0  0  0  0  0  0  0  0  0  0
    7.7796   10.1314   21.5115 N   0  0  0  0  0  0  0  0  0  0  0  0
    9.2768    5.6183   21.4437 C   0  0  0  0  0  0  0  0  0  0  0  0
    8.6315    7.7322   23.1768 C   0  0  0  0  0  0  0  0  0  0  0  0
   13.0537    9.9821   20.5781 C   0  0  0  0  0  0  0  0  0  0  0  0
   10.3850    4.6575   23.2386 O   0  0  0  0  0  0  0  0  0  0  0  0
    4.2069    6.8450   20.7994 C   0  0  0  0  0  0  0  0  0  0  0  0
    3.0726   10.1043   19.8522 O   0  0  0  0  0  0  0  0  0  0  0  0
    5.5057    7.1196   21.1155 C   0  0  0  0  0  0  0  0  0  0  0  0
    7.0367   11.0229   21.9948 O   0  0  0  0  0  0  0  0  0  0  0  0
  1  8  4  0
  1 12  4  0
  2  9  1  0
  2 11  4  0
  2 25  4  0
  3 12  4  0
  3 14  1  0
  3 23  4  0
  4 13  4  0
  4 21  4  0
  4 24  1  0
  5  8  4  0
  5 23  4  0
  6 18  2  0
  7 15  4  0
  7 16  1  0
  7 27  4  0
  8 18  1  0
 10 18  1  0
 10 20  1  0
 11 15  4  0
 11 26  1  0
 13 22  4  0
 16 19  1  0
 16 20  2  0
 17 19  4  0
 17 21  4  0
 19 22  4  0
 20 28  1  0
 25 27  4  0
M  END
$$$$

 Created by Python create_sdf_string function

 28 30  0  0  0  0  0  0  0  0999 V2000
   11.4592   11.2893   18.7941 C   0  0  0  0  0  0  0  0  0  0  0  0
    3.4202    7.9009   20.3866 C   0  0  0  0  0  0  0  0  0  0  0  0
   13.5280   10.3522   19.3586 C   0  0  0  0  0  0  0  0  0  0  0  0
    9.6923    5.6468   22.7891 C   0  0  0  0  0  0  0  0  0  0  0  0
   11.7756   10.2554   20.8841 N   0  0  0  0  0  0  0  0  0  0  0  0
    8.9876   11.9370   19.8757 O   0  0  0  0  0  0  0  0  0  0  0  0
    6.0167    8.4478   21.1089 C   0  0  0  0  0  0  0  0  0  0  0  0
   11.0002   10.8890   20.0262 C   0  0  0  0  0  0  0  0  0  0  0  0
    2.1721    7.7393   20.0315 O   0  0  0  0  0  0  0  0  0  0  0  0
    9.1107   10.3880   21.3769 N   0  0  0  0  0  0  0  0  0  0  0  0
    3.9102    9.2008   20.3124 C   0  0  0  0  0  0  0  0  0  0  0  0
   12.7292   10.9960   18.4597 C   0  0  0  0  0  0  0  0  0  0  0  0
    9.3798    6.6793   23.6625 C   0  0  0  0  0  0  0  0  0  0  0  0
   14.7425   10.0739   19.0802 O   0  0  0  0  0  0  0  0  0  0  0  0
    5.1894    9.4673   20.7118 C   0  0  0  0  0  0  0  0  0  0  0  0
    7.3773    8.8224   21.4870 C   0  0  0  0  0  0  0  0  0  0  0  0
    8.4391    6.6439   21.0235 C   0  0  0  0  0  0  0  0  0  0  0  0
    9.6494   11.1353   20.4167 C   0  0  0  0  0  0  0  0  0  0  0  0
    8.1431    7.6829   21.9046 C   0  0  0  0  0  0  0  0  0  0  0  0
    7.7796   10.1314   21.5115 N   0  0  0  0  0  0  0  0  0  0  0  0
    9.2768    5.6183   21.4437 C   0  0  0  0  0  0  0  0  0  0  0  0
    8.6315    7.7322   23.1768 C   0  0  0  0  0  0  0  0  0  0  0  0
   13.0537    9.9821   20.5781 C   0  0  0  0  0  0  0  0  0  0  0  0
   10.3850    4.6575   23.2386 O   0  0  0  0  0  0  0  0  0  0  0  0
    4.2069    6.8450   20.7994 C   0  0  0  0  0  0  0  0  0  0  0  0
    3.0726   10.1043   19.8522 O   0  0  0  0  0  0  0  0  0  0  0  0
    5.5057    7.1196   21.1155 C   0  0  0  0  0  0  0  0  0  0  0  0
    7.0367   11.0229   21.9948 O   0  0  0  0  0  0  0  0  0  0  0  0
  1  8  4  0
  1 12  4  0
  2  9  1  0
  2 11  4  0
  2 25  4  0
  3 12  4  0
  3 14  1  0
  3 23  4  0
  4 13  4  0
  4 21  4  0
  4 24  1  0
  5  8  4  0
  5 23  4  0
  6 18  2  0
  7 15  4  0
  7 16  1  0
  7 27  4  0
  8 18  1  0
 10 18  1  0
 10 20  1  0
 11 15  4  0
 11 26  1  0
 13 22  4  0
 16 19  1  0
 16 20  2  0
 17 19  4  0
 17 21  4  0
 19 22  4  0
 20 28  1  0
 25 27  4  0
M  END
$$$$

 Created by Python create_sdf_string function

 28 30  0  0  0  0  0  0  0  0999 V2000
   11.4592   11.2893   18.7941 C   0  0  0  0  0  0  0  0  0  0  0  0
    3.4202    7.9009   20.3866 C   0  0  0  0  0  0  0  0  0  0  0  0
   13.5280   10.3522   19.3586 C   0  0  0  0  0  0  0  0  0  0  0  0
    9.6923    5.6468   22.7891 C   0  0  0  0  0  0  0  0  0  0  0  0
   11.7756   10.2554   20.8841 N   0  0  0  0  0  0  0  0  0  0  0  0
    8.9876   11.9370   19.8757 O   0  0  0  0  0  0  0  0  0  0  0  0
    6.0167    8.4478   21.1089 C   0  0  0  0  0  0  0  0  0  0  0  0
   11.0002   10.8890   20.0262 C   0  0  0  0  0  0  0  0  0  0  0  0
    2.1721    7.7393   20.0315 O   0  0  0  0  0  0  0  0  0  0  0  0
    9.1107   10.3880   21.3769 N   0  0  0  0  0  0  0  0  0  0  0  0
    3.9102    9.2008   20.3124 C   0  0  0  0  0  0  0  0  0  0  0  0
   12.7292   10.9960   18.4597 C   0  0  0  0  0  0  0  0  0  0  0  0
    9.3798    6.6793   23.6625 C   0  0  0  0  0  0  0  0  0  0  0  0
   14.7425   10.0739   19.0802 O   0  0  0  0  0  0  0  0  0  0  0  0
    5.1894    9.4673   20.7118 C   0  0  0  0  0  0  0  0  0  0  0  0
    7.3773    8.8224   21.4870 C   0  0  0  0  0  0  0  0  0  0  0  0
    8.4391    6.6439   21.0235 C   0  0  0  0  0  0  0  0  0  0  0  0
    9.6494   11.1353   20.4167 C   0  0  0  0  0  0  0  0  0  0  0  0
    8.1431    7.6829   21.9046 C   0  0  0  0  0  0  0  0  0  0  0  0
    7.7796   10.1314   21.5115 N   0  0  0  0  0  0  0  0  0  0  0  0
    9.2768    5.6183   21.4437 C   0  0  0  0  0  0  0  0  0  0  0  0
    8.6315    7.7322   23.1768 C   0  0  0  0  0  0  0  0  0  0  0  0
   13.0537    9.9821   20.5781 C   0  0  0  0  0  0  0  0  0  0  0  0
   10.3850    4.6575   23.2386 O   0  0  0  0  0  0  0  0  0  0  0  0
    4.2069    6.8450   20.7994 C   0  0  0  0  0  0  0  0  0  0  0  0
    3.0726   10.1043   19.8522 O   0  0  0  0  0  0  0  0  0  0  0  0
    5.5057    7.1196   21.1155 C   0  0  0  0  0  0  0  0  0  0  0  0
    7.0367   11.0229   21.9948 O   0  0  0  0  0  0  0  0  0  0  0  0
  1  8  4  0
  1 12  4  0
  2  9  1  0
  2 11  4  0
  2 25  4  0
  3 12  4  0
  3 14  1  0
  3 23  4  0
  4 13  4  0
  4 21  4  0
  4 24  1  0
  5  8  4  0
  5 23  4  0
  6 18  2  0
  7 15  4  0
  7 16  1  0
  7 27  4  0
  8 18  1  0
 10 18  1  0
 10 20  1  0
 11 15  4  0
 11 26  1  0
 13 22  4  0
 16 19  1  0
 16 20  2  0
 17 19  4  0
 17 21  4  0
 19 22  4  0
 20 28  1  0
 25 27  4  0
M  END
$$$$

 Created by Python create_sdf_string function

 28 30  0  0  0  0  0  0  0  0999 V2000
   11.4592   11.2893   18.7941 C   0  0  0  0  0  0  0  0  0  0  0  0
    3.4202    7.9009   20.3866 C   0  0  0  0  0  0  0  0  0  0  0  0
   13.5280   10.3522   19.3586 C   0  0  0  0  0  0  0  0  0  0  0  0
    9.6923    5.6468   22.7891 C   0  0  0  0  0  0  0  0  0  0  0  0
   11.7756   10.2554   20.8841 N   0  0  0  0  0  0  0  0  0  0  0  0
    8.9876   11.9370   19.8757 O   0  0  0  0  0  0  0  0  0  0  0  0
    6.0167    8.4478   21.1089 C   0  0  0  0  0  0  0  0  0  0  0  0
   11.0002   10.8890   20.0262 C   0  0  0  0  0  0  0  0  0  0  0  0
    2.1721    7.7393   20.0315 O   0  0  0  0  0  0  0  0  0  0  0  0
    9.1107   10.3880   21.3769 N   0  0  0  0  0  0  0  0  0  0  0  0
    3.9102    9.2008   20.3124 C   0  0  0  0  0  0  0  0  0  0  0  0
   12.7292   10.9960   18.4597 C   0  0  0  0  0  0  0  0  0  0  0  0
    9.3798    6.6793   23.6625 C   0  0  0  0  0  0  0  0  0  0  0  0
   14.7425   10.0739   19.0802 O   0  0  0  0  0  0  0  0  0  0  0  0
    5.1894    9.4673   20.7118 C   0  0  0  0  0  0  0  0  0  0  0  0
    7.3773    8.8224   21.4870 C   0  0  0  0  0  0  0  0  0  0  0  0
    8.4391    6.6439   21.0235 C   0  0  0  0  0  0  0  0  0  0  0  0
    9.6494   11.1353   20.4167 C   0  0  0  0  0  0  0  0  0  0  0  0
    8.1431    7.6829   21.9046 C   0  0  0  0  0  0  0  0  0  0  0  0
    7.7796   10.1314   21.5115 N   0  0  0  0  0  0  0  0  0  0  0  0
    9.2768    5.6183   21.4437 C   0  0  0  0  0  0  0  0  0  0  0  0
    8.6315    7.7322   23.1768 C   0  0  0  0  0  0  0  0  0  0  0  0
   13.0537    9.9821   20.5781 C   0  0  0  0  0  0  0  0  0  0  0  0
   10.3850    4.6575   23.2386 O   0  0  0  0  0  0  0  0  0  0  0  0
    4.2069    6.8450   20.7994 C   0  0  0  0  0  0  0  0  0  0  0  0
    3.0726   10.1043   19.8522 O   0  0  0  0  0  0  0  0  0  0  0  0
    5.5057    7.1196   21.1155 C   0  0  0  0  0  0  0  0  0  0  0  0
    7.0367   11.0229   21.9948 O   0  0  0  0  0  0  0  0  0  0  0  0
  1  8  4  0
  1 12  4  0
  2  9  1  0
  2 11  4  0
  2 25  4  0
  3 12  4  0
  3 14  1  0
  3 23  4  0
  4 13  4  0
  4 21  4  0
  4 24  1  0
  5  8  4  0
  5 23  4  0
  6 18  2  0
  7 15  4  0
  7 16  1  0
  7 27  4  0
  8 18  1  0
 10 18  1  0
 10 20  1  0
 11 15  4  0
 11 26  1  0
 13 22  4  0
 16 19  1  0
 16 20  2  0
 17 19  4  0
 17 21  4  0
 19 22  4  0
 20 28  1  0
 25 27  4  0
M  END
$$$$

 Created by Python create_sdf_string function

 28 30  0  0  0  0  0  0  0  0999 V2000
   11.4592   11.2893   18.7941 C   0  0  0  0  0  0  0  0  0  0  0  0
    3.4202    7.9009   20.3866 C   0  0  0  0  0  0  0  0  0  0  0  0
   13.5280   10.3522   19.3586 C   0  0  0  0  0  0  0  0  0  0  0  0
    9.6923    5.6468   22.7891 C   0  0  0  0  0  0  0  0  0  0  0  0
   11.7756   10.2554   20.8841 N   0  0  0  0  0  0  0  0  0  0  0  0
    8.9876   11.9370   19.8757 O   0  0  0  0  0  0  0  0  0  0  0  0
    6.0167    8.4478   21.1089 C   0  0  0  0  0  0  0  0  0  0  0  0
   11.0002   10.8890   20.0262 C   0  0  0  0  0  0  0  0  0  0  0  0
    2.1721    7.7393   20.0315 O   0  0  0  0  0  0  0  0  0  0  0  0
    9.1107   10.3880   21.3769 N   0  0  0  0  0  0  0  0  0  0  0  0
    3.9102    9.2008   20.3124 C   0  0  0  0  0  0  0  0  0  0  0  0
   12.7292   10.9960   18.4597 C   0  0  0  0  0  0  0  0  0  0  0  0
    9.3798    6.6793   23.6625 C   0  0  0  0  0  0  0  0  0  0  0  0
   14.7425   10.0739   19.0802 O   0  0  0  0  0  0  0  0  0  0  0  0
    5.1894    9.4673   20.7118 C   0  0  0  0  0  0  0  0  0  0  0  0
    7.3773    8.8224   21.4870 C   0  0  0  0  0  0  0  0  0  0  0  0
    8.4391    6.6439   21.0235 C   0  0  0  0  0  0  0  0  0  0  0  0
    9.6494   11.1353   20.4167 C   0  0  0  0  0  0  0  0  0  0  0  0
    8.1431    7.6829   21.9046 C   0  0  0  0  0  0  0  0  0  0  0  0
    7.7796   10.1314   21.5115 N   0  0  0  0  0  0  0  0  0  0  0  0
    9.2768    5.6183   21.4437 C   0  0  0  0  0  0  0  0  0  0  0  0
    8.6315    7.7322   23.1768 C   0  0  0  0  0  0  0  0  0  0  0  0
   13.0537    9.9821   20.5781 C   0  0  0  0  0  0  0  0  0  0  0  0
   10.3850    4.6575   23.2386 O   0  0  0  0  0  0  0  0  0  0  0  0
    4.2069    6.8450   20.7994 C   0  0  0  0  0  0  0  0  0  0  0  0
    3.0726   10.1043   19.8522 O   0  0  0  0  0  0  0  0  0  0  0  0
    5.5057    7.1196   21.1155 C   0  0  0  0  0  0  0  0  0  0  0  0
    7.0367   11.0229   21.9948 O   0  0  0  0  0  0  0  0  0  0  0  0
  1  8  4  0
  1 12  4  0
  2  9  1  0
  2 11  4  0
  2 25  4  0
  3 12  4  0
  3 14  1  0
  3 23  4  0
  4 13  4  0
  4 21  4  0
  4 24  1  0
  5  8  4  0
  5 23  4  0
  6 18  2  0
  7 15  4  0
  7 16  1  0
  7 27  4  0
  8 18  1  0
 10 18  1  0
 10 20  1  0
 11 15  4  0
 11 26  1  0
 13 22  4  0
 16 19  1  0
 16 20  2  0
 17 19  4  0
 17 21  4  0
 19 22  4  0
 20 28  1  0
 25 27  4  0
M  END
$$$$

 Created by Python create_sdf_string function

 28 30  0  0  0  0  0  0  0  0999 V2000
   11.4592   11.2893   18.7941 C   0  0  0  0  0  0  0  0  0  0  0  0
    3.4202    7.9009   20.3866 C   0  0  0  0  0  0  0  0  0  0  0  0
   13.5280   10.3522   19.3586 C   0  0  0  0  0  0  0  0  0  0  0  0
    9.6923    5.6468   22.7891 C   0  0  0  0  0  0  0  0  0  0  0  0
   11.7756   10.2554   20.8841 N   0  0  0  0  0  0  0  0  0  0  0  0
    8.9876   11.9370   19.8757 O   0  0  0  0  0  0  0  0  0  0  0  0
    6.0167    8.4478   21.1089 C   0  0  0  0  0  0  0  0  0  0  0  0
   11.0002   10.8890   20.0262 C   0  0  0  0  0  0  0  0  0  0  0  0
    2.1721    7.7393   20.0315 O   0  0  0  0  0  0  0  0  0  0  0  0
    9.1107   10.3880   21.3769 N   0  0  0  0  0  0  0  0  0  0  0  0
    3.9102    9.2008   20.3124 C   0  0  0  0  0  0  0  0  0  0  0  0
   12.7292   10.9960   18.4597 C   0  0  0  0  0  0  0  0  0  0  0  0
    9.3798    6.6793   23.6625 C   0  0  0  0  0  0  0  0  0  0  0  0
   14.7425   10.0739   19.0802 O   0  0  0  0  0  0  0  0  0  0  0  0
    5.1894    9.4673   20.7118 C   0  0  0  0  0  0  0  0  0  0  0  0
    7.3773    8.8224   21.4870 C   0  0  0  0  0  0  0  0  0  0  0  0
    8.4391    6.6439   21.0235 C   0  0  0  0  0  0  0  0  0  0  0  0
    9.6494   11.1353   20.4167 C   0  0  0  0  0  0  0  0  0  0  0  0
    8.1431    7.6829   21.9046 C   0  0  0  0  0  0  0  0  0  0  0  0
    7.7796   10.1314   21.5115 N   0  0  0  0  0  0  0  0  0  0  0  0
    9.2768    5.6183   21.4437 C   0  0  0  0  0  0  0  0  0  0  0  0
    8.6315    7.7322   23.1768 C   0  0  0  0  0  0  0  0  0  0  0  0
   13.0537    9.9821   20.5781 C   0  0  0  0  0  0  0  0  0  0  0  0
   10.3850    4.6575   23.2386 O   0  0  0  0  0  0  0  0  0  0  0  0
    4.2069    6.8450   20.7994 C   0  0  0  0  0  0  0  0  0  0  0  0
    3.0726   10.1043   19.8522 O   0  0  0  0  0  0  0  0  0  0  0  0
    5.5057    7.1196   21.1155 C   0  0  0  0  0  0  0  0  0  0  0  0
    7.0367   11.0229   21.9948 O   0  0  0  0  0  0  0  0  0  0  0  0
  1  8  4  0
  1 12  4  0
  2  9  1  0
  2 11  4  0
  2 25  4  0
  3 12  4  0
  3 14  1  0
  3 23  4  0
  4 13  4  0
  4 21  4  0
  4 24  1  0
  5  8  4  0
  5 23  4  0
  6 18  2  0
  7 15  4  0
  7 16  1  0
  7 27  4  0
  8 18  1  0
 10 18  1  0
 10 20  1  0
 11 15  4  0
 11 26  1  0
 13 22  4  0
 16 19  1  0
 16 20  2  0
 17 19  4  0
 17 21  4  0
 19 22  4  0
 20 28  1  0
 25 27  4  0
M  END
$$$$

 Created by Python create_sdf_string function

 28 30  0  0  0  0  0  0  0  0999 V2000
   11.4592   11.2893   18.7941 C   0  0  0  0  0  0  0  0  0  0  0  0
    3.4202    7.9009   20.3866 C   0  0  0  0  0  0  0  0  0  0  0  0
   13.5280   10.3522   19.3586 C   0  0  0  0  0  0  0  0  0  0  0  0
    9.6923    5.6468   22.7891 C   0  0  0  0  0  0  0  0  0  0  0  0
   11.7756   10.2554   20.8841 N   0  0  0  0  0  0  0  0  0  0  0  0
    8.9876   11.9370   19.8757 O   0  0  0  0  0  0  0  0  0  0  0  0
    6.0167    8.4478   21.1089 C   0  0  0  0  0  0  0  0  0  0  0  0
   11.0002   10.8890   20.0262 C   0  0  0  0  0  0  0  0  0  0  0  0
    2.1721    7.7393   20.0315 O   0  0  0  0  0  0  0  0  0  0  0  0
    9.1107   10.3880   21.3769 N   0  0  0  0  0  0  0  0  0  0  0  0
    3.9102    9.2008   20.3124 C   0  0  0  0  0  0  0  0  0  0  0  0
   12.7292   10.9960   18.4597 C   0  0  0  0  0  0  0  0  0  0  0  0
    9.3798    6.6793   23.6625 C   0  0  0  0  0  0  0  0  0  0  0  0
   14.7425   10.0739   19.0802 O   0  0  0  0  0  0  0  0  0  0  0  0
    5.1894    9.4673   20.7118 C   0  0  0  0  0  0  0  0  0  0  0  0
    7.3773    8.8224   21.4870 C   0  0  0  0  0  0  0  0  0  0  0  0
    8.4391    6.6439   21.0235 C   0  0  0  0  0  0  0  0  0  0  0  0
    9.6494   11.1353   20.4167 C   0  0  0  0  0  0  0  0  0  0  0  0
    8.1431    7.6829   21.9046 C   0  0  0  0  0  0  0  0  0  0  0  0
    7.7796   10.1314   21.5115 N   0  0  0  0  0  0  0  0  0  0  0  0
    9.2768    5.6183   21.4437 C   0  0  0  0  0  0  0  0  0  0  0  0
    8.6315    7.7322   23.1768 C   0  0  0  0  0  0  0  0  0  0  0  0
   13.0537    9.9821   20.5781 C   0  0  0  0  0  0  0  0  0  0  0  0
   10.3850    4.6575   23.2386 O   0  0  0  0  0  0  0  0  0  0  0  0
    4.2069    6.8450   20.7994 C   0  0  0  0  0  0  0  0  0  0  0  0
    3.0726   10.1043   19.8522 O   0  0  0  0  0  0  0  0  0  0  0  0
    5.5057    7.1196   21.1155 C   0  0  0  0  0  0  0  0  0  0  0  0
    7.0367   11.0229   21.9948 O   0  0  0  0  0  0  0  0  0  0  0  0
  1  8  4  0
  1 12  4  0
  2  9  1  0
  2 11  4  0
  2 25  4  0
  3 12  4  0
  3 14  1  0
  3 23  4  0
  4 13  4  0
  4 21  4  0
  4 24  1  0
  5  8  4  0
  5 23  4  0
  6 18  2  0
  7 15  4  0
  7 16  1  0
  7 27  4  0
  8 18  1  0
 10 18  1  0
 10 20  1  0
 11 15  4  0
 11 26  1  0
 13 22  4  0
 16 19  1  0
 16 20  2  0
 17 19  4  0
 17 21  4  0
 19 22  4  0
 20 28  1  0
 25 27  4  0
M  END
$$$$

 Created by Python create_sdf_string function

 28 30  0  0  0  0  0  0  0  0999 V2000
   11.4592   11.2893   18.7941 C   0  0  0  0  0  0  0  0  0  0  0  0
    3.4202    7.9009   20.3866 C   0  0  0  0  0  0  0  0  0  0  0  0
   13.5280   10.3522   19.3586 C   0  0  0  0  0  0  0  0  0  0  0  0
    9.6923    5.6468   22.7891 C   0  0  0  0  0  0  0  0  0  0  0  0
   11.7756   10.2554   20.8841 N   0  0  0  0  0  0  0  0  0  0  0  0
    8.9876   11.9370   19.8757 O   0  0  0  0  0  0  0  0  0  0  0  0
    6.0167    8.4478   21.1089 C   0  0  0  0  0  0  0  0  0  0  0  0
   11.0002   10.8890   20.0262 C   0  0  0  0  0  0  0  0  0  0  0  0
    2.1721    7.7393   20.0315 O   0  0  0  0  0  0  0  0  0  0  0  0
    9.1107   10.3880   21.3769 N   0  0  0  0  0  0  0  0  0  0  0  0
    3.9102    9.2008   20.3124 C   0  0  0  0  0  0  0  0  0  0  0  0
   12.7292   10.9960   18.4597 C   0  0  0  0  0  0  0  0  0  0  0  0
    9.3798    6.6793   23.6625 C   0  0  0  0  0  0  0  0  0  0  0  0
   14.7425   10.0739   19.0802 O   0  0  0  0  0  0  0  0  0  0  0  0
    5.1894    9.4673   20.7118 C   0  0  0  0  0  0  0  0  0  0  0  0
    7.3773    8.8224   21.4870 C   0  0  0  0  0  0  0  0  0  0  0  0
    8.4391    6.6439   21.0235 C   0  0  0  0  0  0  0  0  0  0  0  0
    9.6494   11.1353   20.4167 C   0  0  0  0  0  0  0  0  0  0  0  0
    8.1431    7.6829   21.9046 C   0  0  0  0  0  0  0  0  0  0  0  0
    7.7796   10.1314   21.5115 N   0  0  0  0  0  0  0  0  0  0  0  0
    9.2768    5.6183   21.4437 C   0  0  0  0  0  0  0  0  0  0  0  0
    8.6315    7.7322   23.1768 C   0  0  0  0  0  0  0  0  0  0  0  0
   13.0537    9.9821   20.5781 C   0  0  0  0  0  0  0  0  0  0  0  0
   10.3850    4.6575   23.2386 O   0  0  0  0  0  0  0  0  0  0  0  0
    4.2069    6.8450   20.7994 C   0  0  0  0  0  0  0  0  0  0  0  0
    3.0726   10.1043   19.8522 O   0  0  0  0  0  0  0  0  0  0  0  0
    5.5057    7.1196   21.1155 C   0  0  0  0  0  0  0  0  0  0  0  0
    7.0367   11.0229   21.9948 O   0  0  0  0  0  0  0  0  0  0  0  0
  1  8  4  0
  1 12  4  0
  2  9  1  0
  2 11  4  0
  2 25  4  0
  3 12  4  0
  3 14  1  0
  3 23  4  0
  4 13  4  0
  4 21  4  0
  4 24  1  0
  5  8  4  0
  5 23  4  0
  6 18  2  0
  7 15  4  0
  7 16  1  0
  7 27  4  0
  8 18  1  0
 10 18  1  0
 10 20  1  0
 11 15  4  0
 11 26  1  0
 13 22  4  0
 16 19  1  0
 16 20  2  0
 17 19  4  0
 17 21  4  0
 19 22  4  0
 20 28  1  0
 25 27  4  0
M  END
$$$$

 Created by Python create_sdf_string function

 28 30  0  0  0  0  0  0  0  0999 V2000
   11.4592   11.2893   18.7941 C   0  0  0  0  0  0  0  0  0  0  0  0
    3.4202    7.9009   20.3866 C   0  0  0  0  0  0  0  0  0  0  0  0
   13.5280   10.3522   19.3586 C   0  0  0  0  0  0  0  0  0  0  0  0
    9.6923    5.6468   22.7891 C   0  0  0  0  0  0  0  0  0  0  0  0
   11.7756   10.2554   20.8841 N   0  0  0  0  0  0  0  0  0  0  0  0
    8.9876   11.9370   19.8757 O   0  0  0  0  0  0  0  0  0  0  0  0
    6.0167    8.4478   21.1089 C   0  0  0  0  0  0  0  0  0  0  0  0
   11.0002   10.8890   20.0262 C   0  0  0  0  0  0  0  0  0  0  0  0
    2.1721    7.7393   20.0315 O   0  0  0  0  0  0  0  0  0  0  0  0
    9.1107   10.3880   21.3769 N   0  0  0  0  0  0  0  0  0  0  0  0
    3.9102    9.2008   20.3124 C   0  0  0  0  0  0  0  0  0  0  0  0
   12.7292   10.9960   18.4597 C   0  0  0  0  0  0  0  0  0  0  0  0
    9.3798    6.6793   23.6625 C   0  0  0  0  0  0  0  0  0  0  0  0
   14.7425   10.0739   19.0802 O   0  0  0  0  0  0  0  0  0  0  0  0
    5.1894    9.4673   20.7118 C   0  0  0  0  0  0  0  0  0  0  0  0
    7.3773    8.8224   21.4870 C   0  0  0  0  0  0  0  0  0  0  0  0
    8.4391    6.6439   21.0235 C   0  0  0  0  0  0  0  0  0  0  0  0
    9.6494   11.1353   20.4167 C   0  0  0  0  0  0  0  0  0  0  0  0
    8.1431    7.6829   21.9046 C   0  0  0  0  0  0  0  0  0  0  0  0
    7.7796   10.1314   21.5115 N   0  0  0  0  0  0  0  0  0  0  0  0
    9.2768    5.6183   21.4437 C   0  0  0  0  0  0  0  0  0  0  0  0
    8.6315    7.7322   23.1768 C   0  0  0  0  0  0  0  0  0  0  0  0
   13.0537    9.9821   20.5781 C   0  0  0  0  0  0  0  0  0  0  0  0
   10.3850    4.6575   23.2386 O   0  0  0  0  0  0  0  0  0  0  0  0
    4.2069    6.8450   20.7994 C   0  0  0  0  0  0  0  0  0  0  0  0
    3.0726   10.1043   19.8522 O   0  0  0  0  0  0  0  0  0  0  0  0
    5.5057    7.1196   21.1155 C   0  0  0  0  0  0  0  0  0  0  0  0
    7.0367   11.0229   21.9948 O   0  0  0  0  0  0  0  0  0  0  0  0
  1  8  4  0
  1 12  4  0
  2  9  1  0
  2 11  4  0
  2 25  4  0
  3 12  4  0
  3 14  1  0
  3 23  4  0
  4 13  4  0
  4 21  4  0
  4 24  1  0
  5  8  4  0
  5 23  4  0
  6 18  2  0
  7 15  4  0
  7 16  1  0
  7 27  4  0
  8 18  1  0
 10 18  1  0
 10 20  1  0
 11 15  4  0
 11 26  1  0
 13 22  4  0
 16 19  1  0
 16 20  2  0
 17 19  4  0
 17 21  4  0
 19 22  4  0
 20 28  1  0
 25 27  4  0
M  END
$$$$

 Created by Python create_sdf_string function

 28 30  0  0  0  0  0  0  0  0999 V2000
   11.4592   11.2893   18.7941 C   0  0  0  0  0  0  0  0  0  0  0  0
    3.4202    7.9009   20.3866 C   0  0  0  0  0  0  0  0  0  0  0  0
   13.5280   10.3522   19.3586 C   0  0  0  0  0  0  0  0  0  0  0  0
    9.6923    5.6468   22.7891 C   0  0  0  0  0  0  0  0  0  0  0  0
   11.7756   10.2554   20.8841 N   0  0  0  0  0  0  0  0  0  0  0  0
    8.9876   11.9370   19.8757 O   0  0  0  0  0  0  0  0  0  0  0  0
    6.0167    8.4478   21.1089 C   0  0  0  0  0  0  0  0  0  0  0  0
   11.0002   10.8890   20.0262 C   0  0  0  0  0  0  0  0  0  0  0  0
    2.1721    7.7393   20.0315 O   0  0  0  0  0  0  0  0  0  0  0  0
    9.1107   10.3880   21.3769 N   0  0  0  0  0  0  0  0  0  0  0  0
    3.9102    9.2008   20.3124 C   0  0  0  0  0  0  0  0  0  0  0  0
   12.7292   10.9960   18.4597 C   0  0  0  0  0  0  0  0  0  0  0  0
    9.3798    6.6793   23.6625 C   0  0  0  0  0  0  0  0  0  0  0  0
   14.7425   10.0739   19.0802 O   0  0  0  0  0  0  0  0  0  0  0  0
    5.1894    9.4673   20.7118 C   0  0  0  0  0  0  0  0  0  0  0  0
    7.3773    8.8224   21.4870 C   0  0  0  0  0  0  0  0  0  0  0  0
    8.4391    6.6439   21.0235 C   0  0  0  0  0  0  0  0  0  0  0  0
    9.6494   11.1353   20.4167 C   0  0  0  0  0  0  0  0  0  0  0  0
    8.1431    7.6829   21.9046 C   0  0  0  0  0  0  0  0  0  0  0  0
    7.7796   10.1314   21.5115 N   0  0  0  0  0  0  0  0  0  0  0  0
    9.2768    5.6183   21.4437 C   0  0  0  0  0  0  0  0  0  0  0  0
    8.6315    7.7322   23.1768 C   0  0  0  0  0  0  0  0  0  0  0  0
   13.0537    9.9821   20.5781 C   0  0  0  0  0  0  0  0  0  0  0  0
   10.3850    4.6575   23.2386 O   0  0  0  0  0  0  0  0  0  0  0  0
    4.2069    6.8450   20.7994 C   0  0  0  0  0  0  0  0  0  0  0  0
    3.0726   10.1043   19.8522 O   0  0  0  0  0  0  0  0  0  0  0  0
    5.5057    7.1196   21.1155 C   0  0  0  0  0  0  0  0  0  0  0  0
    7.0367   11.0229   21.9948 O   0  0  0  0  0  0  0  0  0  0  0  0
  1  8  4  0
  1 12  4  0
  2  9  1  0
  2 11  4  0
  2 25  4  0
  3 12  4  0
  3 14  1  0
  3 23  4  0
  4 13  4  0
  4 21  4  0
  4 24  1  0
  5  8  4  0
  5 23  4  0
  6 18  2  0
  7 15  4  0
  7 16  1  0
  7 27  4  0
  8 18  1  0
 10 18  1  0
 10 20  1  0
 11 15  4  0
 11 26  1  0
 13 22  4  0
 16 19  1  0
 16 20  2  0
 17 19  4  0
 17 21  4  0
 19 22  4  0
 20 28  1  0
 25 27  4  0
M  END
$$$$

 Created by Python create_sdf_string function

 28 30  0  0  0  0  0  0  0  0999 V2000
   11.4592   11.2893   18.7941 C   0  0  0  0  0  0  0  0  0  0  0  0
    3.4202    7.9009   20.3866 C   0  0  0  0  0  0  0  0  0  0  0  0
   13.5280   10.3522   19.3586 C   0  0  0  0  0  0  0  0  0  0  0  0
    9.6923    5.6468   22.7891 C   0  0  0  0  0  0  0  0  0  0  0  0
   11.7756   10.2554   20.8841 N   0  0  0  0  0  0  0  0  0  0  0  0
    8.9876   11.9370   19.8757 O   0  0  0  0  0  0  0  0  0  0  0  0
    6.0167    8.4478   21.1089 C   0  0  0  0  0  0  0  0  0  0  0  0
   11.0002   10.8890   20.0262 C   0  0  0  0  0  0  0  0  0  0  0  0
    2.1721    7.7393   20.0315 O   0  0  0  0  0  0  0  0  0  0  0  0
    9.1107   10.3880   21.3769 N   0  0  0  0  0  0  0  0  0  0  0  0
    3.9102    9.2008   20.3124 C   0  0  0  0  0  0  0  0  0  0  0  0
   12.7292   10.9960   18.4597 C   0  0  0  0  0  0  0  0  0  0  0  0
    9.3798    6.6793   23.6625 C   0  0  0  0  0  0  0  0  0  0  0  0
   14.7425   10.0739   19.0802 O   0  0  0  0  0  0  0  0  0  0  0  0
    5.1894    9.4673   20.7118 C   0  0  0  0  0  0  0  0  0  0  0  0
    7.3773    8.8224   21.4870 C   0  0  0  0  0  0  0  0  0  0  0  0
    8.4391    6.6439   21.0235 C   0  0  0  0  0  0  0  0  0  0  0  0
    9.6494   11.1353   20.4167 C   0  0  0  0  0  0  0  0  0  0  0  0
    8.1431    7.6829   21.9046 C   0  0  0  0  0  0  0  0  0  0  0  0
    7.7796   10.1314   21.5115 N   0  0  0  0  0  0  0  0  0  0  0  0
    9.2768    5.6183   21.4437 C   0  0  0  0  0  0  0  0  0  0  0  0
    8.6315    7.7322   23.1768 C   0  0  0  0  0  0  0  0  0  0  0  0
   13.0537    9.9821   20.5781 C   0  0  0  0  0  0  0  0  0  0  0  0
   10.3850    4.6575   23.2386 O   0  0  0  0  0  0  0  0  0  0  0  0
    4.2069    6.8450   20.7994 C   0  0  0  0  0  0  0  0  0  0  0  0
    3.0726   10.1043   19.8522 O   0  0  0  0  0  0  0  0  0  0  0  0
    5.5057    7.1196   21.1155 C   0  0  0  0  0  0  0  0  0  0  0  0
    7.0367   11.0229   21.9948 O   0  0  0  0  0  0  0  0  0  0  0  0
  1  8  4  0
  1 12  4  0
  2  9  1  0
  2 11  4  0
  2 25  4  0
  3 12  4  0
  3 14  1  0
  3 23  4  0
  4 13  4  0
  4 21  4  0
  4 24  1  0
  5  8  4  0
  5 23  4  0
  6 18  2  0
  7 15  4  0
  7 16  1  0
  7 27  4  0
  8 18  1  0
 10 18  1  0
 10 20  1  0
 11 15  4  0
 11 26  1  0
 13 22  4  0
 16 19  1  0
 16 20  2  0
 17 19  4  0
 17 21  4  0
 19 22  4  0
 20 28  1  0
 25 27  4  0
M  END
$$$$

 Created by Python create_sdf_string function

 28 30  0  0  0  0  0  0  0  0999 V2000
   11.4592   11.2893   18.7941 C   0  0  0  0  0  0  0  0  0  0  0  0
    3.4202    7.9009   20.3866 C   0  0  0  0  0  0  0  0  0  0  0  0
   13.5280   10.3522   19.3586 C   0  0  0  0  0  0  0  0  0  0  0  0
    9.6923    5.6468   22.7891 C   0  0  0  0  0  0  0  0  0  0  0  0
   11.7756   10.2554   20.8841 N   0  0  0  0  0  0  0  0  0  0  0  0
    8.9876   11.9370   19.8757 O   0  0  0  0  0  0  0  0  0  0  0  0
    6.0167    8.4478   21.1089 C   0  0  0  0  0  0  0  0  0  0  0  0
   11.0002   10.8890   20.0262 C   0  0  0  0  0  0  0  0  0  0  0  0
    2.1721    7.7393   20.0315 O   0  0  0  0  0  0  0  0  0  0  0  0
    9.1107   10.3880   21.3769 N   0  0  0  0  0  0  0  0  0  0  0  0
    3.9102    9.2008   20.3124 C   0  0  0  0  0  0  0  0  0  0  0  0
   12.7292   10.9960   18.4597 C   0  0  0  0  0  0  0  0  0  0  0  0
    9.3798    6.6793   23.6625 C   0  0  0  0  0  0  0  0  0  0  0  0
   14.7425   10.0739   19.0802 O   0  0  0  0  0  0  0  0  0  0  0  0
    5.1894    9.4673   20.7118 C   0  0  0  0  0  0  0  0  0  0  0  0
    7.3773    8.8224   21.4870 C   0  0  0  0  0  0  0  0  0  0  0  0
    8.4391    6.6439   21.0235 C   0  0  0  0  0  0  0  0  0  0  0  0
    9.6494   11.1353   20.4167 C   0  0  0  0  0  0  0  0  0  0  0  0
    8.1431    7.6829   21.9046 C   0  0  0  0  0  0  0  0  0  0  0  0
    7.7796   10.1314   21.5115 N   0  0  0  0  0  0  0  0  0  0  0  0
    9.2768    5.6183   21.4437 C   0  0  0  0  0  0  0  0  0  0  0  0
    8.6315    7.7322   23.1768 C   0  0  0  0  0  0  0  0  0  0  0  0
   13.0537    9.9821   20.5781 C   0  0  0  0  0  0  0  0  0  0  0  0
   10.3850    4.6575   23.2386 O   0  0  0  0  0  0  0  0  0  0  0  0
    4.2069    6.8450   20.7994 C   0  0  0  0  0  0  0  0  0  0  0  0
    3.0726   10.1043   19.8522 O   0  0  0  0  0  0  0  0  0  0  0  0
    5.5057    7.1196   21.1155 C   0  0  0  0  0  0  0  0  0  0  0  0
    7.0367   11.0229   21.9948 O   0  0  0  0  0  0  0  0  0  0  0  0
  1  8  4  0
  1 12  4  0
  2  9  1  0
  2 11  4  0
  2 25  4  0
  3 12  4  0
  3 14  1  0
  3 23  4  0
  4 13  4  0
  4 21  4  0
  4 24  1  0
  5  8  4  0
  5 23  4  0
  6 18  2  0
  7 15  4  0
  7 16  1  0
  7 27  4  0
  8 18  1  0
 10 18  1  0
 10 20  1  0
 11 15  4  0
 11 26  1  0
 13 22  4  0
 16 19  1  0
 16 20  2  0
 17 19  4  0
 17 21  4  0
 19 22  4  0
 20 28  1  0
 25 27  4  0
M  END
$$$$

 Created by Python create_sdf_string function

 28 30  0  0  0  0  0  0  0  0999 V2000
   11.4592   11.2893   18.7941 C   0  0  0  0  0  0  0  0  0  0  0  0
    3.4202    7.9009   20.3866 C   0  0  0  0  0  0  0  0  0  0  0  0
   13.5280   10.3522   19.3586 C   0  0  0  0  0  0  0  0  0  0  0  0
    9.6923    5.6468   22.7891 C   0  0  0  0  0  0  0  0  0  0  0  0
   11.7756   10.2554   20.8841 N   0  0  0  0  0  0  0  0  0  0  0  0
    8.9876   11.9370   19.8757 O   0  0  0  0  0  0  0  0  0  0  0  0
    6.0167    8.4478   21.1089 C   0  0  0  0  0  0  0  0  0  0  0  0
   11.0002   10.8890   20.0262 C   0  0  0  0  0  0  0  0  0  0  0  0
    2.1721    7.7393   20.0315 O   0  0  0  0  0  0  0  0  0  0  0  0
    9.1107   10.3880   21.3769 N   0  0  0  0  0  0  0  0  0  0  0  0
    3.9102    9.2008   20.3124 C   0  0  0  0  0  0  0  0  0  0  0  0
   12.7292   10.9960   18.4597 C   0  0  0  0  0  0  0  0  0  0  0  0
    9.3798    6.6793   23.6625 C   0  0  0  0  0  0  0  0  0  0  0  0
   14.7425   10.0739   19.0802 O   0  0  0  0  0  0  0  0  0  0  0  0
    5.1894    9.4673   20.7118 C   0  0  0  0  0  0  0  0  0  0  0  0
    7.3773    8.8224   21.4870 C   0  0  0  0  0  0  0  0  0  0  0  0
    8.4391    6.6439   21.0235 C   0  0  0  0  0  0  0  0  0  0  0  0
    9.6494   11.1353   20.4167 C   0  0  0  0  0  0  0  0  0  0  0  0
    8.1431    7.6829   21.9046 C   0  0  0  0  0  0  0  0  0  0  0  0
    7.7796   10.1314   21.5115 N   0  0  0  0  0  0  0  0  0  0  0  0
    9.2768    5.6183   21.4437 C   0  0  0  0  0  0  0  0  0  0  0  0
    8.6315    7.7322   23.1768 C   0  0  0  0  0  0  0  0  0  0  0  0
   13.0537    9.9821   20.5781 C   0  0  0  0  0  0  0  0  0  0  0  0
   10.3850    4.6575   23.2386 O   0  0  0  0  0  0  0  0  0  0  0  0
    4.2069    6.8450   20.7994 C   0  0  0  0  0  0  0  0  0  0  0  0
    3.0726   10.1043   19.8522 O   0  0  0  0  0  0  0  0  0  0  0  0
    5.5057    7.1196   21.1155 C   0  0  0  0  0  0  0  0  0  0  0  0
    7.0367   11.0229   21.9948 O   0  0  0  0  0  0  0  0  0  0  0  0
  1  8  4  0
  1 12  4  0
  2  9  1  0
  2 11  4  0
  2 25  4  0
  3 12  4  0
  3 14  1  0
  3 23  4  0
  4 13  4  0
  4 21  4  0
  4 24  1  0
  5  8  4  0
  5 23  4  0
  6 18  2  0
  7 15  4  0
  7 16  1  0
  7 27  4  0
  8 18  1  0
 10 18  1  0
 10 20  1  0
 11 15  4  0
 11 26  1  0
 13 22  4  0
 16 19  1  0
 16 20  2  0
 17 19  4  0
 17 21  4  0
 19 22  4  0
 20 28  1  0
 25 27  4  0
M  END
$$$$

 Created by Python create_sdf_string function

 28 30  0  0  0  0  0  0  0  0999 V2000
   11.4592   11.2893   18.7941 C   0  0  0  0  0  0  0  0  0  0  0  0
    3.4202    7.9009   20.3866 C   0  0  0  0  0  0  0  0  0  0  0  0
   13.5280   10.3522   19.3586 C   0  0  0  0  0  0  0  0  0  0  0  0
    9.6923    5.6468   22.7891 C   0  0  0  0  0  0  0  0  0  0  0  0
   11.7756   10.2554   20.8841 N   0  0  0  0  0  0  0  0  0  0  0  0
    8.9876   11.9370   19.8757 O   0  0  0  0  0  0  0  0  0  0  0  0
    6.0167    8.4478   21.1089 C   0  0  0  0  0  0  0  0  0  0  0  0
   11.0002   10.8890   20.0262 C   0  0  0  0  0  0  0  0  0  0  0  0
    2.1721    7.7393   20.0315 O   0  0  0  0  0  0  0  0  0  0  0  0
    9.1107   10.3880   21.3769 N   0  0  0  0  0  0  0  0  0  0  0  0
    3.9102    9.2008   20.3124 C   0  0  0  0  0  0  0  0  0  0  0  0
   12.7292   10.9960   18.4597 C   0  0  0  0  0  0  0  0  0  0  0  0
    9.3798    6.6793   23.6625 C   0  0  0  0  0  0  0  0  0  0  0  0
   14.7425   10.0739   19.0802 O   0  0  0  0  0  0  0  0  0  0  0  0
    5.1894    9.4673   20.7118 C   0  0  0  0  0  0  0  0  0  0  0  0
    7.3773    8.8224   21.4870 C   0  0  0  0  0  0  0  0  0  0  0  0
    8.4391    6.6439   21.0235 C   0  0  0  0  0  0  0  0  0  0  0  0
    9.6494   11.1353   20.4167 C   0  0  0  0  0  0  0  0  0  0  0  0
    8.1431    7.6829   21.9046 C   0  0  0  0  0  0  0  0  0  0  0  0
    7.7796   10.1314   21.5115 N   0  0  0  0  0  0  0  0  0  0  0  0
    9.2768    5.6183   21.4437 C   0  0  0  0  0  0  0  0  0  0  0  0
    8.6315    7.7322   23.1768 C   0  0  0  0  0  0  0  0  0  0  0  0
   13.0537    9.9821   20.5781 C   0  0  0  0  0  0  0  0  0  0  0  0
   10.3850    4.6575   23.2386 O   0  0  0  0  0  0  0  0  0  0  0  0
    4.2069    6.8450   20.7994 C   0  0  0  0  0  0  0  0  0  0  0  0
    3.0726   10.1043   19.8522 O   0  0  0  0  0  0  0  0  0  0  0  0
    5.5057    7.1196   21.1155 C   0  0  0  0  0  0  0  0  0  0  0  0
    7.0367   11.0229   21.9948 O   0  0  0  0  0  0  0  0  0  0  0  0
  1  8  4  0
  1 12  4  0
  2  9  1  0
  2 11  4  0
  2 25  4  0
  3 12  4  0
  3 14  1  0
  3 23  4  0
  4 13  4  0
  4 21  4  0
  4 24  1  0
  5  8  4  0
  5 23  4  0
  6 18  2  0
  7 15  4  0
  7 16  1  0
  7 27  4  0
  8 18  1  0
 10 18  1  0
 10 20  1  0
 11 15  4  0
 11 26  1  0
 13 22  4  0
 16 19  1  0
 16 20  2  0
 17 19  4  0
 17 21  4  0
 19 22  4  0
 20 28  1  0
 25 27  4  0
M  END
$$$$

 Created by Python create_sdf_string function

 28 30  0  0  0  0  0  0  0  0999 V2000
   11.4592   11.2893   18.7941 C   0  0  0  0  0  0  0  0  0  0  0  0
    3.4202    7.9009   20.3866 C   0  0  0  0  0  0  0  0  0  0  0  0
   13.5280   10.3522   19.3586 C   0  0  0  0  0  0  0  0  0  0  0  0
    9.6923    5.6468   22.7891 C   0  0  0  0  0  0  0  0  0  0  0  0
   11.7756   10.2554   20.8841 N   0  0  0  0  0  0  0  0  0  0  0  0
    8.9876   11.9370   19.8757 O   0  0  0  0  0  0  0  0  0  0  0  0
    6.0167    8.4478   21.1089 C   0  0  0  0  0  0  0  0  0  0  0  0
   11.0002   10.8890   20.0262 C   0  0  0  0  0  0  0  0  0  0  0  0
    2.1721    7.7393   20.0315 O   0  0  0  0  0  0  0  0  0  0  0  0
    9.1107   10.3880   21.3769 N   0  0  0  0  0  0  0  0  0  0  0  0
    3.9102    9.2008   20.3124 C   0  0  0  0  0  0  0  0  0  0  0  0
   12.7292   10.9960   18.4597 C   0  0  0  0  0  0  0  0  0  0  0  0
    9.3798    6.6793   23.6625 C   0  0  0  0  0  0  0  0  0  0  0  0
   14.7425   10.0739   19.0802 O   0  0  0  0  0  0  0  0  0  0  0  0
    5.1894    9.4673   20.7118 C   0  0  0  0  0  0  0  0  0  0  0  0
    7.3773    8.8224   21.4870 C   0  0  0  0  0  0  0  0  0  0  0  0
    8.4391    6.6439   21.0235 C   0  0  0  0  0  0  0  0  0  0  0  0
    9.6494   11.1353   20.4167 C   0  0  0  0  0  0  0  0  0  0  0  0
    8.1431    7.6829   21.9046 C   0  0  0  0  0  0  0  0  0  0  0  0
    7.7796   10.1314   21.5115 N   0  0  0  0  0  0  0  0  0  0  0  0
    9.2768    5.6183   21.4437 C   0  0  0  0  0  0  0  0  0  0  0  0
    8.6315    7.7322   23.1768 C   0  0  0  0  0  0  0  0  0  0  0  0
   13.0537    9.9821   20.5781 C   0  0  0  0  0  0  0  0  0  0  0  0
   10.3850    4.6575   23.2386 O   0  0  0  0  0  0  0  0  0  0  0  0
    4.2069    6.8450   20.7994 C   0  0  0  0  0  0  0  0  0  0  0  0
    3.0726   10.1043   19.8522 O   0  0  0  0  0  0  0  0  0  0  0  0
    5.5057    7.1196   21.1155 C   0  0  0  0  0  0  0  0  0  0  0  0
    7.0367   11.0229   21.9948 O   0  0  0  0  0  0  0  0  0  0  0  0
  1  8  4  0
  1 12  4  0
  2  9  1  0
  2 11  4  0
  2 25  4  0
  3 12  4  0
  3 14  1  0
  3 23  4  0
  4 13  4  0
  4 21  4  0
  4 24  1  0
  5  8  4  0
  5 23  4  0
  6 18  2  0
  7 15  4  0
  7 16  1  0
  7 27  4  0
  8 18  1  0
 10 18  1  0
 10 20  1  0
 11 15  4  0
 11 26  1  0
 13 22  4  0
 16 19  1  0
 16 20  2  0
 17 19  4  0
 17 21  4  0
 19 22  4  0
 20 28  1  0
 25 27  4  0
M  END
$$$$

 Created by Python create_sdf_string function

 28 30  0  0  0  0  0  0  0  0999 V2000
   11.4592   11.2893   18.7941 C   0  0  0  0  0  0  0  0  0  0  0  0
    3.4202    7.9009   20.3866 C   0  0  0  0  0  0  0  0  0  0  0  0
   13.5280   10.3522   19.3586 C   0  0  0  0  0  0  0  0  0  0  0  0
    9.6923    5.6468   22.7891 C   0  0  0  0  0  0  0  0  0  0  0  0
   11.7756   10.2554   20.8841 N   0  0  0  0  0  0  0  0  0  0  0  0
    8.9876   11.9370   19.8757 O   0  0  0  0  0  0  0  0  0  0  0  0
    6.0167    8.4478   21.1089 C   0  0  0  0  0  0  0  0  0  0  0  0
   11.0002   10.8890   20.0262 C   0  0  0  0  0  0  0  0  0  0  0  0
    2.1721    7.7393   20.0315 O   0  0  0  0  0  0  0  0  0  0  0  0
    9.1107   10.3880   21.3769 N   0  0  0  0  0  0  0  0  0  0  0  0
    3.9102    9.2008   20.3124 C   0  0  0  0  0  0  0  0  0  0  0  0
   12.7292   10.9960   18.4597 C   0  0  0  0  0  0  0  0  0  0  0  0
    9.3798    6.6793   23.6625 C   0  0  0  0  0  0  0  0  0  0  0  0
   14.7425   10.0739   19.0802 O   0  0  0  0  0  0  0  0  0  0  0  0
    5.1894    9.4673   20.7118 C   0  0  0  0  0  0  0  0  0  0  0  0
    7.3773    8.8224   21.4870 C   0  0  0  0  0  0  0  0  0  0  0  0
    8.4391    6.6439   21.0235 C   0  0  0  0  0  0  0  0  0  0  0  0
    9.6494   11.1353   20.4167 C   0  0  0  0  0  0  0  0  0  0  0  0
    8.1431    7.6829   21.9046 C   0  0  0  0  0  0  0  0  0  0  0  0
    7.7796   10.1314   21.5115 N   0  0  0  0  0  0  0  0  0  0  0  0
    9.2768    5.6183   21.4437 C   0  0  0  0  0  0  0  0  0  0  0  0
    8.6315    7.7322   23.1768 C   0  0  0  0  0  0  0  0  0  0  0  0
   13.0537    9.9821   20.5781 C   0  0  0  0  0  0  0  0  0  0  0  0
   10.3850    4.6575   23.2386 O   0  0  0  0  0  0  0  0  0  0  0  0
    4.2069    6.8450   20.7994 C   0  0  0  0  0  0  0  0  0  0  0  0
    3.0726   10.1043   19.8522 O   0  0  0  0  0  0  0  0  0  0  0  0
    5.5057    7.1196   21.1155 C   0  0  0  0  0  0  0  0  0  0  0  0
    7.0367   11.0229   21.9948 O   0  0  0  0  0  0  0  0  0  0  0  0
  1  8  4  0
  1 12  4  0
  2  9  1  0
  2 11  4  0
  2 25  4  0
  3 12  4  0
  3 14  1  0
  3 23  4  0
  4 13  4  0
  4 21  4  0
  4 24  1  0
  5  8  4  0
  5 23  4  0
  6 18  2  0
  7 15  4  0
  7 16  1  0
  7 27  4  0
  8 18  1  0
 10 18  1  0
 10 20  1  0
 11 15  4  0
 11 26  1  0
 13 22  4  0
 16 19  1  0
 16 20  2  0
 17 19  4  0
 17 21  4  0
 19 22  4  0
 20 28  1  0
 25 27  4  0
M  END
$$$$

 Created by Python create_sdf_string function

 28 30  0  0  0  0  0  0  0  0999 V2000
   11.4592   11.2893   18.7941 C   0  0  0  0  0  0  0  0  0  0  0  0
    3.4202    7.9009   20.3866 C   0  0  0  0  0  0  0  0  0  0  0  0
   13.5280   10.3522   19.3586 C   0  0  0  0  0  0  0  0  0  0  0  0
    9.6923    5.6468   22.7891 C   0  0  0  0  0  0  0  0  0  0  0  0
   11.7756   10.2554   20.8841 N   0  0  0  0  0  0  0  0  0  0  0  0
    8.9876   11.9370   19.8757 O   0  0  0  0  0  0  0  0  0  0  0  0
    6.0167    8.4478   21.1089 C   0  0  0  0  0  0  0  0  0  0  0  0
   11.0002   10.8890   20.0262 C   0  0  0  0  0  0  0  0  0  0  0  0
    2.1721    7.7393   20.0315 O   0  0  0  0  0  0  0  0  0  0  0  0
    9.1107   10.3880   21.3769 N   0  0  0  0  0  0  0  0  0  0  0  0
    3.9102    9.2008   20.3124 C   0  0  0  0  0  0  0  0  0  0  0  0
   12.7292   10.9960   18.4597 C   0  0  0  0  0  0  0  0  0  0  0  0
    9.3798    6.6793   23.6625 C   0  0  0  0  0  0  0  0  0  0  0  0
   14.7425   10.0739   19.0802 O   0  0  0  0  0  0  0  0  0  0  0  0
    5.1894    9.4673   20.7118 C   0  0  0  0  0  0  0  0  0  0  0  0
    7.3773    8.8224   21.4870 C   0  0  0  0  0  0  0  0  0  0  0  0
    8.4391    6.6439   21.0235 C   0  0  0  0  0  0  0  0  0  0  0  0
    9.6494   11.1353   20.4167 C   0  0  0  0  0  0  0  0  0  0  0  0
    8.1431    7.6829   21.9046 C   0  0  0  0  0  0  0  0  0  0  0  0
    7.7796   10.1314   21.5115 N   0  0  0  0  0  0  0  0  0  0  0  0
    9.2768    5.6183   21.4437 C   0  0  0  0  0  0  0  0  0  0  0  0
    8.6315    7.7322   23.1768 C   0  0  0  0  0  0  0  0  0  0  0  0
   13.0537    9.9821   20.5781 C   0  0  0  0  0  0  0  0  0  0  0  0
   10.3850    4.6575   23.2386 O   0  0  0  0  0  0  0  0  0  0  0  0
    4.2069    6.8450   20.7994 C   0  0  0  0  0  0  0  0  0  0  0  0
    3.0726   10.1043   19.8522 O   0  0  0  0  0  0  0  0  0  0  0  0
    5.5057    7.1196   21.1155 C   0  0  0  0  0  0  0  0  0  0  0  0
    7.0367   11.0229   21.9948 O   0  0  0  0  0  0  0  0  0  0  0  0
  1  8  4  0
  1 12  4  0
  2  9  1  0
  2 11  4  0
  2 25  4  0
  3 12  4  0
  3 14  1  0
  3 23  4  0
  4 13  4  0
  4 21  4  0
  4 24  1  0
  5  8  4  0
  5 23  4  0
  6 18  2  0
  7 15  4  0
  7 16  1  0
  7 27  4  0
  8 18  1  0
 10 18  1  0
 10 20  1  0
 11 15  4  0
 11 26  1  0
 13 22  4  0
 16 19  1  0
 16 20  2  0
 17 19  4  0
 17 21  4  0
 19 22  4  0
 20 28  1  0
 25 27  4  0
M  END
$$$$

 Created by Python create_sdf_string function

 28 30  0  0  0  0  0  0  0  0999 V2000
   11.4592   11.2893   18.7941 C   0  0  0  0  0  0  0  0  0  0  0  0
    3.4202    7.9009   20.3866 C   0  0  0  0  0  0  0  0  0  0  0  0
   13.5280   10.3522   19.3586 C   0  0  0  0  0  0  0  0  0  0  0  0
    9.6923    5.6468   22.7891 C   0  0  0  0  0  0  0  0  0  0  0  0
   11.7756   10.2554   20.8841 N   0  0  0  0  0  0  0  0  0  0  0  0
    8.9876   11.9370   19.8757 O   0  0  0  0  0  0  0  0  0  0  0  0
    6.0167    8.4478   21.1089 C   0  0  0  0  0  0  0  0  0  0  0  0
   11.0002   10.8890   20.0262 C   0  0  0  0  0  0  0  0  0  0  0  0
    2.1721    7.7393   20.0315 O   0  0  0  0  0  0  0  0  0  0  0  0
    9.1107   10.3880   21.3769 N   0  0  0  0  0  0  0  0  0  0  0  0
    3.9102    9.2008   20.3124 C   0  0  0  0  0  0  0  0  0  0  0  0
   12.7292   10.9960   18.4597 C   0  0  0  0  0  0  0  0  0  0  0  0
    9.3798    6.6793   23.6625 C   0  0  0  0  0  0  0  0  0  0  0  0
   14.7425   10.0739   19.0802 O   0  0  0  0  0  0  0  0  0  0  0  0
    5.1894    9.4673   20.7118 C   0  0  0  0  0  0  0  0  0  0  0  0
    7.3773    8.8224   21.4870 C   0  0  0  0  0  0  0  0  0  0  0  0
    8.4391    6.6439   21.0235 C   0  0  0  0  0  0  0  0  0  0  0  0
    9.6494   11.1353   20.4167 C   0  0  0  0  0  0  0  0  0  0  0  0
    8.1431    7.6829   21.9046 C   0  0  0  0  0  0  0  0  0  0  0  0
    7.7796   10.1314   21.5115 N   0  0  0  0  0  0  0  0  0  0  0  0
    9.2768    5.6183   21.4437 C   0  0  0  0  0  0  0  0  0  0  0  0
    8.6315    7.7322   23.1768 C   0  0  0  0  0  0  0  0  0  0  0  0
   13.0537    9.9821   20.5781 C   0  0  0  0  0  0  0  0  0  0  0  0
   10.3850    4.6575   23.2386 O   0  0  0  0  0  0  0  0  0  0  0  0
    4.2069    6.8450   20.7994 C   0  0  0  0  0  0  0  0  0  0  0  0
    3.0726   10.1043   19.8522 O   0  0  0  0  0  0  0  0  0  0  0  0
    5.5057    7.1196   21.1155 C   0  0  0  0  0  0  0  0  0  0  0  0
    7.0367   11.0229   21.9948 O   0  0  0  0  0  0  0  0  0  0  0  0
  1  8  4  0
  1 12  4  0
  2  9  1  0
  2 11  4  0
  2 25  4  0
  3 12  4  0
  3 14  1  0
  3 23  4  0
  4 13  4  0
  4 21  4  0
  4 24  1  0
  5  8  4  0
  5 23  4  0
  6 18  2  0
  7 15  4  0
  7 16  1  0
  7 27  4  0
  8 18  1  0
 10 18  1  0
 10 20  1  0
 11 15  4  0
 11 26  1  0
 13 22  4  0
 16 19  1  0
 16 20  2  0
 17 19  4  0
 17 21  4  0
 19 22  4  0
 20 28  1  0
 25 27  4  0
M  END
$$$$

 Created by Python create_sdf_string function

 28 30  0  0  0  0  0  0  0  0999 V2000
   11.4592   11.2893   18.7941 C   0  0  0  0  0  0  0  0  0  0  0  0
    3.4202    7.9009   20.3866 C   0  0  0  0  0  0  0  0  0  0  0  0
   13.5280   10.3522   19.3586 C   0  0  0  0  0  0  0  0  0  0  0  0
    9.6923    5.6468   22.7891 C   0  0  0  0  0  0  0  0  0  0  0  0
   11.7756   10.2554   20.8841 N   0  0  0  0  0  0  0  0  0  0  0  0
    8.9876   11.9370   19.8757 O   0  0  0  0  0  0  0  0  0  0  0  0
    6.0167    8.4478   21.1089 C   0  0  0  0  0  0  0  0  0  0  0  0
   11.0002   10.8890   20.0262 C   0  0  0  0  0  0  0  0  0  0  0  0
    2.1721    7.7393   20.0315 O   0  0  0  0  0  0  0  0  0  0  0  0
    9.1107   10.3880   21.3769 N   0  0  0  0  0  0  0  0  0  0  0  0
    3.9102    9.2008   20.3124 C   0  0  0  0  0  0  0  0  0  0  0  0
   12.7292   10.9960   18.4597 C   0  0  0  0  0  0  0  0  0  0  0  0
    9.3798    6.6793   23.6625 C   0  0  0  0  0  0  0  0  0  0  0  0
   14.7425   10.0739   19.0802 O   0  0  0  0  0  0  0  0  0  0  0  0
    5.1894    9.4673   20.7118 C   0  0  0  0  0  0  0  0  0  0  0  0
    7.3773    8.8224   21.4870 C   0  0  0  0  0  0  0  0  0  0  0  0
    8.4391    6.6439   21.0235 C   0  0  0  0  0  0  0  0  0  0  0  0
    9.6494   11.1353   20.4167 C   0  0  0  0  0  0  0  0  0  0  0  0
    8.1431    7.6829   21.9046 C   0  0  0  0  0  0  0  0  0  0  0  0
    7.7796   10.1314   21.5115 N   0  0  0  0  0  0  0  0  0  0  0  0
    9.2768    5.6183   21.4437 C   0  0  0  0  0  0  0  0  0  0  0  0
    8.6315    7.7322   23.1768 C   0  0  0  0  0  0  0  0  0  0  0  0
   13.0537    9.9821   20.5781 C   0  0  0  0  0  0  0  0  0  0  0  0
   10.3850    4.6575   23.2386 O   0  0  0  0  0  0  0  0  0  0  0  0
    4.2069    6.8450   20.7994 C   0  0  0  0  0  0  0  0  0  0  0  0
    3.0726   10.1043   19.8522 O   0  0  0  0  0  0  0  0  0  0  0  0
    5.5057    7.1196   21.1155 C   0  0  0  0  0  0  0  0  0  0  0  0
    7.0367   11.0229   21.9948 O   0  0  0  0  0  0  0  0  0  0  0  0
  1  8  4  0
  1 12  4  0
  2  9  1  0
  2 11  4  0
  2 25  4  0
  3 12  4  0
  3 14  1  0
  3 23  4  0
  4 13  4  0
  4 21  4  0
  4 24  1  0
  5  8  4  0
  5 23  4  0
  6 18  2  0
  7 15  4  0
  7 16  1  0
  7 27  4  0
  8 18  1  0
 10 18  1  0
 10 20  1  0
 11 15  4  0
 11 26  1  0
 13 22  4  0
 16 19  1  0
 16 20  2  0
 17 19  4  0
 17 21  4  0
 19 22  4  0
 20 28  1  0
 25 27  4  0
M  END
$$$$

 Created by Python create_sdf_string function

 28 30  0  0  0  0  0  0  0  0999 V2000
   11.4592   11.2893   18.7941 C   0  0  0  0  0  0  0  0  0  0  0  0
    3.4202    7.9009   20.3866 C   0  0  0  0  0  0  0  0  0  0  0  0
   13.5280   10.3522   19.3586 C   0  0  0  0  0  0  0  0  0  0  0  0
    9.6923    5.6468   22.7891 C   0  0  0  0  0  0  0  0  0  0  0  0
   11.7756   10.2554   20.8841 N   0  0  0  0  0  0  0  0  0  0  0  0
    8.9876   11.9370   19.8757 O   0  0  0  0  0  0  0  0  0  0  0  0
    6.0167    8.4478   21.1089 C   0  0  0  0  0  0  0  0  0  0  0  0
   11.0002   10.8890   20.0262 C   0  0  0  0  0  0  0  0  0  0  0  0
    2.1721    7.7393   20.0315 O   0  0  0  0  0  0  0  0  0  0  0  0
    9.1107   10.3880   21.3769 N   0  0  0  0  0  0  0  0  0  0  0  0
    3.9102    9.2008   20.3124 C   0  0  0  0  0  0  0  0  0  0  0  0
   12.7292   10.9960   18.4597 C   0  0  0  0  0  0  0  0  0  0  0  0
    9.3798    6.6793   23.6625 C   0  0  0  0  0  0  0  0  0  0  0  0
   14.7425   10.0739   19.0802 O   0  0  0  0  0  0  0  0  0  0  0  0
    5.1894    9.4673   20.7118 C   0  0  0  0  0  0  0  0  0  0  0  0
    7.3773    8.8224   21.4870 C   0  0  0  0  0  0  0  0  0  0  0  0
    8.4391    6.6439   21.0235 C   0  0  0  0  0  0  0  0  0  0  0  0
    9.6494   11.1353   20.4167 C   0  0  0  0  0  0  0  0  0  0  0  0
    8.1431    7.6829   21.9046 C   0  0  0  0  0  0  0  0  0  0  0  0
    7.7796   10.1314   21.5115 N   0  0  0  0  0  0  0  0  0  0  0  0
    9.2768    5.6183   21.4437 C   0  0  0  0  0  0  0  0  0  0  0  0
    8.6315    7.7322   23.1768 C   0  0  0  0  0  0  0  0  0  0  0  0
   13.0537    9.9821   20.5781 C   0  0  0  0  0  0  0  0  0  0  0  0
   10.3850    4.6575   23.2386 O   0  0  0  0  0  0  0  0  0  0  0  0
    4.2069    6.8450   20.7994 C   0  0  0  0  0  0  0  0  0  0  0  0
    3.0726   10.1043   19.8522 O   0  0  0  0  0  0  0  0  0  0  0  0
    5.5057    7.1196   21.1155 C   0  0  0  0  0  0  0  0  0  0  0  0
    7.0367   11.0229   21.9948 O   0  0  0  0  0  0  0  0  0  0  0  0
  1  8  4  0
  1 12  4  0
  2  9  1  0
  2 11  4  0
  2 25  4  0
  3 12  4  0
  3 14  1  0
  3 23  4  0
  4 13  4  0
  4 21  4  0
  4 24  1  0
  5  8  4  0
  5 23  4  0
  6 18  2  0
  7 15  4  0
  7 16  1  0
  7 27  4  0
  8 18  1  0
 10 18  1  0
 10 20  1  0
 11 15  4  0
 11 26  1  0
 13 22  4  0
 16 19  1  0
 16 20  2  0
 17 19  4  0
 17 21  4  0
 19 22  4  0
 20 28  1  0
 25 27  4  0
M  END
$$$$

 Created by Python create_sdf_string function

 28 30  0  0  0  0  0  0  0  0999 V2000
   11.4592   11.2893   18.7941 C   0  0  0  0  0  0  0  0  0  0  0  0
    3.4202    7.9009   20.3866 C   0  0  0  0  0  0  0  0  0  0  0  0
   13.5280   10.3522   19.3586 C   0  0  0  0  0  0  0  0  0  0  0  0
    9.6923    5.6468   22.7891 C   0  0  0  0  0  0  0  0  0  0  0  0
   11.7756   10.2554   20.8841 N   0  0  0  0  0  0  0  0  0  0  0  0
    8.9876   11.9370   19.8757 O   0  0  0  0  0  0  0  0  0  0  0  0
    6.0167    8.4478   21.1089 C   0  0  0  0  0  0  0  0  0  0  0  0
   11.0002   10.8890   20.0262 C   0  0  0  0  0  0  0  0  0  0  0  0
    2.1721    7.7393   20.0315 O   0  0  0  0  0  0  0  0  0  0  0  0
    9.1107   10.3880   21.3769 N   0  0  0  0  0  0  0  0  0  0  0  0
    3.9102    9.2008   20.3124 C   0  0  0  0  0  0  0  0  0  0  0  0
   12.7292   10.9960   18.4597 C   0  0  0  0  0  0  0  0  0  0  0  0
    9.3798    6.6793   23.6625 C   0  0  0  0  0  0  0  0  0  0  0  0
   14.7425   10.0739   19.0802 O   0  0  0  0  0  0  0  0  0  0  0  0
    5.1894    9.4673   20.7118 C   0  0  0  0  0  0  0  0  0  0  0  0
    7.3773    8.8224   21.4870 C   0  0  0  0  0  0  0  0  0  0  0  0
    8.4391    6.6439   21.0235 C   0  0  0  0  0  0  0  0  0  0  0  0
    9.6494   11.1353   20.4167 C   0  0  0  0  0  0  0  0  0  0  0  0
    8.1431    7.6829   21.9046 C   0  0  0  0  0  0  0  0  0  0  0  0
    7.7796   10.1314   21.5115 N   0  0  0  0  0  0  0  0  0  0  0  0
    9.2768    5.6183   21.4437 C   0  0  0  0  0  0  0  0  0  0  0  0
    8.6315    7.7322   23.1768 C   0  0  0  0  0  0  0  0  0  0  0  0
   13.0537    9.9821   20.5781 C   0  0  0  0  0  0  0  0  0  0  0  0
   10.3850    4.6575   23.2386 O   0  0  0  0  0  0  0  0  0  0  0  0
    4.2069    6.8450   20.7994 C   0  0  0  0  0  0  0  0  0  0  0  0
    3.0726   10.1043   19.8522 O   0  0  0  0  0  0  0  0  0  0  0  0
    5.5057    7.1196   21.1155 C   0  0  0  0  0  0  0  0  0  0  0  0
    7.0367   11.0229   21.9948 O   0  0  0  0  0  0  0  0  0  0  0  0
  1  8  4  0
  1 12  4  0
  2  9  1  0
  2 11  4  0
  2 25  4  0
  3 12  4  0
  3 14  1  0
  3 23  4  0
  4 13  4  0
  4 21  4  0
  4 24  1  0
  5  8  4  0
  5 23  4  0
  6 18  2  0
  7 15  4  0
  7 16  1  0
  7 27  4  0
  8 18  1  0
 10 18  1  0
 10 20  1  0
 11 15  4  0
 11 26  1  0
 13 22  4  0
 16 19  1  0
 16 20  2  0
 17 19  4  0
 17 21  4  0
 19 22  4  0
 20 28  1  0
 25 27  4  0
M  END
$$$$

 Created by Python create_sdf_string function

 28 30  0  0  0  0  0  0  0  0999 V2000
   11.4592   11.2893   18.7941 C   0  0  0  0  0  0  0  0  0  0  0  0
    3.4202    7.9009   20.3866 C   0  0  0  0  0  0  0  0  0  0  0  0
   13.5280   10.3522   19.3586 C   0  0  0  0  0  0  0  0  0  0  0  0
    9.6923    5.6468   22.7891 C   0  0  0  0  0  0  0  0  0  0  0  0
   11.7756   10.2554   20.8841 N   0  0  0  0  0  0  0  0  0  0  0  0
    8.9876   11.9370   19.8757 O   0  0  0  0  0  0  0  0  0  0  0  0
    6.0167    8.4478   21.1089 C   0  0  0  0  0  0  0  0  0  0  0  0
   11.0002   10.8890   20.0262 C   0  0  0  0  0  0  0  0  0  0  0  0
    2.1721    7.7393   20.0315 O   0  0  0  0  0  0  0  0  0  0  0  0
    9.1107   10.3880   21.3769 N   0  0  0  0  0  0  0  0  0  0  0  0
    3.9102    9.2008   20.3124 C   0  0  0  0  0  0  0  0  0  0  0  0
   12.7292   10.9960   18.4597 C   0  0  0  0  0  0  0  0  0  0  0  0
    9.3798    6.6793   23.6625 C   0  0  0  0  0  0  0  0  0  0  0  0
   14.7425   10.0739   19.0802 O   0  0  0  0  0  0  0  0  0  0  0  0
    5.1894    9.4673   20.7118 C   0  0  0  0  0  0  0  0  0  0  0  0
    7.3773    8.8224   21.4870 C   0  0  0  0  0  0  0  0  0  0  0  0
    8.4391    6.6439   21.0235 C   0  0  0  0  0  0  0  0  0  0  0  0
    9.6494   11.1353   20.4167 C   0  0  0  0  0  0  0  0  0  0  0  0
    8.1431    7.6829   21.9046 C   0  0  0  0  0  0  0  0  0  0  0  0
    7.7796   10.1314   21.5115 N   0  0  0  0  0  0  0  0  0  0  0  0
    9.2768    5.6183   21.4437 C   0  0  0  0  0  0  0  0  0  0  0  0
    8.6315    7.7322   23.1768 C   0  0  0  0  0  0  0  0  0  0  0  0
   13.0537    9.9821   20.5781 C   0  0  0  0  0  0  0  0  0  0  0  0
   10.3850    4.6575   23.2386 O   0  0  0  0  0  0  0  0  0  0  0  0
    4.2069    6.8450   20.7994 C   0  0  0  0  0  0  0  0  0  0  0  0
    3.0726   10.1043   19.8522 O   0  0  0  0  0  0  0  0  0  0  0  0
    5.5057    7.1196   21.1155 C   0  0  0  0  0  0  0  0  0  0  0  0
    7.0367   11.0229   21.9948 O   0  0  0  0  0  0  0  0  0  0  0  0
  1  8  4  0
  1 12  4  0
  2  9  1  0
  2 11  4  0
  2 25  4  0
  3 12  4  0
  3 14  1  0
  3 23  4  0
  4 13  4  0
  4 21  4  0
  4 24  1  0
  5  8  4  0
  5 23  4  0
  6 18  2  0
  7 15  4  0
  7 16  1  0
  7 27  4  0
  8 18  1  0
 10 18  1  0
 10 20  1  0
 11 15  4  0
 11 26  1  0
 13 22  4  0
 16 19  1  0
 16 20  2  0
 17 19  4  0
 17 21  4  0
 19 22  4  0
 20 28  1  0
 25 27  4  0
M  END
$$$$

 Created by Python create_sdf_string function

 28 30  0  0  0  0  0  0  0  0999 V2000
   11.4592   11.2893   18.7941 C   0  0  0  0  0  0  0  0  0  0  0  0
    3.4202    7.9009   20.3866 C   0  0  0  0  0  0  0  0  0  0  0  0
   13.5280   10.3522   19.3586 C   0  0  0  0  0  0  0  0  0  0  0  0
    9.6923    5.6468   22.7891 C   0  0  0  0  0  0  0  0  0  0  0  0
   11.7756   10.2554   20.8841 N   0  0  0  0  0  0  0  0  0  0  0  0
    8.9876   11.9370   19.8757 O   0  0  0  0  0  0  0  0  0  0  0  0
    6.0167    8.4478   21.1089 C   0  0  0  0  0  0  0  0  0  0  0  0
   11.0002   10.8890   20.0262 C   0  0  0  0  0  0  0  0  0  0  0  0
    2.1721    7.7393   20.0315 O   0  0  0  0  0  0  0  0  0  0  0  0
    9.1107   10.3880   21.3769 N   0  0  0  0  0  0  0  0  0  0  0  0
    3.9102    9.2008   20.3124 C   0  0  0  0  0  0  0  0  0  0  0  0
   12.7292   10.9960   18.4597 C   0  0  0  0  0  0  0  0  0  0  0  0
    9.3798    6.6793   23.6625 C   0  0  0  0  0  0  0  0  0  0  0  0
   14.7425   10.0739   19.0802 O   0  0  0  0  0  0  0  0  0  0  0  0
    5.1894    9.4673   20.7118 C   0  0  0  0  0  0  0  0  0  0  0  0
    7.3773    8.8224   21.4870 C   0  0  0  0  0  0  0  0  0  0  0  0
    8.4391    6.6439   21.0235 C   0  0  0  0  0  0  0  0  0  0  0  0
    9.6494   11.1353   20.4167 C   0  0  0  0  0  0  0  0  0  0  0  0
    8.1431    7.6829   21.9046 C   0  0  0  0  0  0  0  0  0  0  0  0
    7.7796   10.1314   21.5115 N   0  0  0  0  0  0  0  0  0  0  0  0
    9.2768    5.6183   21.4437 C   0  0  0  0  0  0  0  0  0  0  0  0
    8.6315    7.7322   23.1768 C   0  0  0  0  0  0  0  0  0  0  0  0
   13.0537    9.9821   20.5781 C   0  0  0  0  0  0  0  0  0  0  0  0
   10.3850    4.6575   23.2386 O   0  0  0  0  0  0  0  0  0  0  0  0
    4.2069    6.8450   20.7994 C   0  0  0  0  0  0  0  0  0  0  0  0
    3.0726   10.1043   19.8522 O   0  0  0  0  0  0  0  0  0  0  0  0
    5.5057    7.1196   21.1155 C   0  0  0  0  0  0  0  0  0  0  0  0
    7.0367   11.0229   21.9948 O   0  0  0  0  0  0  0  0  0  0  0  0
  1  8  4  0
  1 12  4  0
  2  9  1  0
  2 11  4  0
  2 25  4  0
  3 12  4  0
  3 14  1  0
  3 23  4  0
  4 13  4  0
  4 21  4  0
  4 24  1  0
  5  8  4  0
  5 23  4  0
  6 18  2  0
  7 15  4  0
  7 16  1  0
  7 27  4  0
  8 18  1  0
 10 18  1  0
 10 20  1  0
 11 15  4  0
 11 26  1  0
 13 22  4  0
 16 19  1  0
 16 20  2  0
 17 19  4  0
 17 21  4  0
 19 22  4  0
 20 28  1  0
 25 27  4  0
M  END
$$$$

 Created by Python create_sdf_string function

 28 30  0  0  0  0  0  0  0  0999 V2000
   11.4592   11.2893   18.7941 C   0  0  0  0  0  0  0  0  0  0  0  0
    3.4202    7.9009   20.3866 C   0  0  0  0  0  0  0  0  0  0  0  0
   13.5280   10.3522   19.3586 C   0  0  0  0  0  0  0  0  0  0  0  0
    9.6923    5.6468   22.7891 C   0  0  0  0  0  0  0  0  0  0  0  0
   11.7756   10.2554   20.8841 N   0  0  0  0  0  0  0  0  0  0  0  0
    8.9876   11.9370   19.8757 O   0  0  0  0  0  0  0  0  0  0  0  0
    6.0167    8.4478   21.1089 C   0  0  0  0  0  0  0  0  0  0  0  0
   11.0002   10.8890   20.0262 C   0  0  0  0  0  0  0  0  0  0  0  0
    2.1721    7.7393   20.0315 O   0  0  0  0  0  0  0  0  0  0  0  0
    9.1107   10.3880   21.3769 N   0  0  0  0  0  0  0  0  0  0  0  0
    3.9102    9.2008   20.3124 C   0  0  0  0  0  0  0  0  0  0  0  0
   12.7292   10.9960   18.4597 C   0  0  0  0  0  0  0  0  0  0  0  0
    9.3798    6.6793   23.6625 C   0  0  0  0  0  0  0  0  0  0  0  0
   14.7425   10.0739   19.0802 O   0  0  0  0  0  0  0  0  0  0  0  0
    5.1894    9.4673   20.7118 C   0  0  0  0  0  0  0  0  0  0  0  0
    7.3773    8.8224   21.4870 C   0  0  0  0  0  0  0  0  0  0  0  0
    8.4391    6.6439   21.0235 C   0  0  0  0  0  0  0  0  0  0  0  0
    9.6494   11.1353   20.4167 C   0  0  0  0  0  0  0  0  0  0  0  0
    8.1431    7.6829   21.9046 C   0  0  0  0  0  0  0  0  0  0  0  0
    7.7796   10.1314   21.5115 N   0  0  0  0  0  0  0  0  0  0  0  0
    9.2768    5.6183   21.4437 C   0  0  0  0  0  0  0  0  0  0  0  0
    8.6315    7.7322   23.1768 C   0  0  0  0  0  0  0  0  0  0  0  0
   13.0537    9.9821   20.5781 C   0  0  0  0  0  0  0  0  0  0  0  0
   10.3850    4.6575   23.2386 O   0  0  0  0  0  0  0  0  0  0  0  0
    4.2069    6.8450   20.7994 C   0  0  0  0  0  0  0  0  0  0  0  0
    3.0726   10.1043   19.8522 O   0  0  0  0  0  0  0  0  0  0  0  0
    5.5057    7.1196   21.1155 C   0  0  0  0  0  0  0  0  0  0  0  0
    7.0367   11.0229   21.9948 O   0  0  0  0  0  0  0  0  0  0  0  0
  1  8  4  0
  1 12  4  0
  2  9  1  0
  2 11  4  0
  2 25  4  0
  3 12  4  0
  3 14  1  0
  3 23  4  0
  4 13  4  0
  4 21  4  0
  4 24  1  0
  5  8  4  0
  5 23  4  0
  6 18  2  0
  7 15  4  0
  7 16  1  0
  7 27  4  0
  8 18  1  0
 10 18  1  0
 10 20  1  0
 11 15  4  0
 11 26  1  0
 13 22  4  0
 16 19  1  0
 16 20  2  0
 17 19  4  0
 17 21  4  0
 19 22  4  0
 20 28  1  0
 25 27  4  0
M  END
$$$$

 Created by Python create_sdf_string function

 28 30  0  0  0  0  0  0  0  0999 V2000
   11.4592   11.2893   18.7941 C   0  0  0  0  0  0  0  0  0  0  0  0
    3.4202    7.9009   20.3866 C   0  0  0  0  0  0  0  0  0  0  0  0
   13.5280   10.3522   19.3586 C   0  0  0  0  0  0  0  0  0  0  0  0
    9.6923    5.6468   22.7891 C   0  0  0  0  0  0  0  0  0  0  0  0
   11.7756   10.2554   20.8841 N   0  0  0  0  0  0  0  0  0  0  0  0
    8.9876   11.9370   19.8757 O   0  0  0  0  0  0  0  0  0  0  0  0
    6.0167    8.4478   21.1089 C   0  0  0  0  0  0  0  0  0  0  0  0
   11.0002   10.8890   20.0262 C   0  0  0  0  0  0  0  0  0  0  0  0
    2.1721    7.7393   20.0315 O   0  0  0  0  0  0  0  0  0  0  0  0
    9.1107   10.3880   21.3769 N   0  0  0  0  0  0  0  0  0  0  0  0
    3.9102    9.2008   20.3124 C   0  0  0  0  0  0  0  0  0  0  0  0
   12.7292   10.9960   18.4597 C   0  0  0  0  0  0  0  0  0  0  0  0
    9.3798    6.6793   23.6625 C   0  0  0  0  0  0  0  0  0  0  0  0
   14.7425   10.0739   19.0802 O   0  0  0  0  0  0  0  0  0  0  0  0
    5.1894    9.4673   20.7118 C   0  0  0  0  0  0  0  0  0  0  0  0
    7.3773    8.8224   21.4870 C   0  0  0  0  0  0  0  0  0  0  0  0
    8.4391    6.6439   21.0235 C   0  0  0  0  0  0  0  0  0  0  0  0
    9.6494   11.1353   20.4167 C   0  0  0  0  0  0  0  0  0  0  0  0
    8.1431    7.6829   21.9046 C   0  0  0  0  0  0  0  0  0  0  0  0
    7.7796   10.1314   21.5115 N   0  0  0  0  0  0  0  0  0  0  0  0
    9.2768    5.6183   21.4437 C   0  0  0  0  0  0  0  0  0  0  0  0
    8.6315    7.7322   23.1768 C   0  0  0  0  0  0  0  0  0  0  0  0
   13.0537    9.9821   20.5781 C   0  0  0  0  0  0  0  0  0  0  0  0
   10.3850    4.6575   23.2386 O   0  0  0  0  0  0  0  0  0  0  0  0
    4.2069    6.8450   20.7994 C   0  0  0  0  0  0  0  0  0  0  0  0
    3.0726   10.1043   19.8522 O   0  0  0  0  0  0  0  0  0  0  0  0
    5.5057    7.1196   21.1155 C   0  0  0  0  0  0  0  0  0  0  0  0
    7.0367   11.0229   21.9948 O   0  0  0  0  0  0  0  0  0  0  0  0
  1  8  4  0
  1 12  4  0
  2  9  1  0
  2 11  4  0
  2 25  4  0
  3 12  4  0
  3 14  1  0
  3 23  4  0
  4 13  4  0
  4 21  4  0
  4 24  1  0
  5  8  4  0
  5 23  4  0
  6 18  2  0
  7 15  4  0
  7 16  1  0
  7 27  4  0
  8 18  1  0
 10 18  1  0
 10 20  1  0
 11 15  4  0
 11 26  1  0
 13 22  4  0
 16 19  1  0
 16 20  2  0
 17 19  4  0
 17 21  4  0
 19 22  4  0
 20 28  1  0
 25 27  4  0
M  END
$$$$

 Created by Python create_sdf_string function

 28 30  0  0  0  0  0  0  0  0999 V2000
   11.4592   11.2893   18.7941 C   0  0  0  0  0  0  0  0  0  0  0  0
    3.4202    7.9009   20.3866 C   0  0  0  0  0  0  0  0  0  0  0  0
   13.5280   10.3522   19.3586 C   0  0  0  0  0  0  0  0  0  0  0  0
    9.6923    5.6468   22.7891 C   0  0  0  0  0  0  0  0  0  0  0  0
   11.7756   10.2554   20.8841 N   0  0  0  0  0  0  0  0  0  0  0  0
    8.9876   11.9370   19.8757 O   0  0  0  0  0  0  0  0  0  0  0  0
    6.0167    8.4478   21.1089 C   0  0  0  0  0  0  0  0  0  0  0  0
   11.0002   10.8890   20.0262 C   0  0  0  0  0  0  0  0  0  0  0  0
    2.1721    7.7393   20.0315 O   0  0  0  0  0  0  0  0  0  0  0  0
    9.1107   10.3880   21.3769 N   0  0  0  0  0  0  0  0  0  0  0  0
    3.9102    9.2008   20.3124 C   0  0  0  0  0  0  0  0  0  0  0  0
   12.7292   10.9960   18.4597 C   0  0  0  0  0  0  0  0  0  0  0  0
    9.3798    6.6793   23.6625 C   0  0  0  0  0  0  0  0  0  0  0  0
   14.7425   10.0739   19.0802 O   0  0  0  0  0  0  0  0  0  0  0  0
    5.1894    9.4673   20.7118 C   0  0  0  0  0  0  0  0  0  0  0  0
    7.3773    8.8224   21.4870 C   0  0  0  0  0  0  0  0  0  0  0  0
    8.4391    6.6439   21.0235 C   0  0  0  0  0  0  0  0  0  0  0  0
    9.6494   11.1353   20.4167 C   0  0  0  0  0  0  0  0  0  0  0  0
    8.1431    7.6829   21.9046 C   0  0  0  0  0  0  0  0  0  0  0  0
    7.7796   10.1314   21.5115 N   0  0  0  0  0  0  0  0  0  0  0  0
    9.2768    5.6183   21.4437 C   0  0  0  0  0  0  0  0  0  0  0  0
    8.6315    7.7322   23.1768 C   0  0  0  0  0  0  0  0  0  0  0  0
   13.0537    9.9821   20.5781 C   0  0  0  0  0  0  0  0  0  0  0  0
   10.3850    4.6575   23.2386 O   0  0  0  0  0  0  0  0  0  0  0  0
    4.2069    6.8450   20.7994 C   0  0  0  0  0  0  0  0  0  0  0  0
    3.0726   10.1043   19.8522 O   0  0  0  0  0  0  0  0  0  0  0  0
    5.5057    7.1196   21.1155 C   0  0  0  0  0  0  0  0  0  0  0  0
    7.0367   11.0229   21.9948 O   0  0  0  0  0  0  0  0  0  0  0  0
  1  8  4  0
  1 12  4  0
  2  9  1  0
  2 11  4  0
  2 25  4  0
  3 12  4  0
  3 14  1  0
  3 23  4  0
  4 13  4  0
  4 21  4  0
  4 24  1  0
  5  8  4  0
  5 23  4  0
  6 18  2  0
  7 15  4  0
  7 16  1  0
  7 27  4  0
  8 18  1  0
 10 18  1  0
 10 20  1  0
 11 15  4  0
 11 26  1  0
 13 22  4  0
 16 19  1  0
 16 20  2  0
 17 19  4  0
 17 21  4  0
 19 22  4  0
 20 28  1  0
 25 27  4  0
M  END
$$$$

 Created by Python create_sdf_string function

 28 30  0  0  0  0  0  0  0  0999 V2000
   11.4592   11.2893   18.7941 C   0  0  0  0  0  0  0  0  0  0  0  0
    3.4202    7.9009   20.3866 C   0  0  0  0  0  0  0  0  0  0  0  0
   13.5280   10.3522   19.3586 C   0  0  0  0  0  0  0  0  0  0  0  0
    9.6923    5.6468   22.7891 C   0  0  0  0  0  0  0  0  0  0  0  0
   11.7756   10.2554   20.8841 N   0  0  0  0  0  0  0  0  0  0  0  0
    8.9876   11.9370   19.8757 O   0  0  0  0  0  0  0  0  0  0  0  0
    6.0167    8.4478   21.1089 C   0  0  0  0  0  0  0  0  0  0  0  0
   11.0002   10.8890   20.0262 C   0  0  0  0  0  0  0  0  0  0  0  0
    2.1721    7.7393   20.0315 O   0  0  0  0  0  0  0  0  0  0  0  0
    9.1107   10.3880   21.3769 N   0  0  0  0  0  0  0  0  0  0  0  0
    3.9102    9.2008   20.3124 C   0  0  0  0  0  0  0  0  0  0  0  0
   12.7292   10.9960   18.4597 C   0  0  0  0  0  0  0  0  0  0  0  0
    9.3798    6.6793   23.6625 C   0  0  0  0  0  0  0  0  0  0  0  0
   14.7425   10.0739   19.0802 O   0  0  0  0  0  0  0  0  0  0  0  0
    5.1894    9.4673   20.7118 C   0  0  0  0  0  0  0  0  0  0  0  0
    7.3773    8.8224   21.4870 C   0  0  0  0  0  0  0  0  0  0  0  0
    8.4391    6.6439   21.0235 C   0  0  0  0  0  0  0  0  0  0  0  0
    9.6494   11.1353   20.4167 C   0  0  0  0  0  0  0  0  0  0  0  0
    8.1431    7.6829   21.9046 C   0  0  0  0  0  0  0  0  0  0  0  0
    7.7796   10.1314   21.5115 N   0  0  0  0  0  0  0  0  0  0  0  0
    9.2768    5.6183   21.4437 C   0  0  0  0  0  0  0  0  0  0  0  0
    8.6315    7.7322   23.1768 C   0  0  0  0  0  0  0  0  0  0  0  0
   13.0537    9.9821   20.5781 C   0  0  0  0  0  0  0  0  0  0  0  0
   10.3850    4.6575   23.2386 O   0  0  0  0  0  0  0  0  0  0  0  0
    4.2069    6.8450   20.7994 C   0  0  0  0  0  0  0  0  0  0  0  0
    3.0726   10.1043   19.8522 O   0  0  0  0  0  0  0  0  0  0  0  0
    5.5057    7.1196   21.1155 C   0  0  0  0  0  0  0  0  0  0  0  0
    7.0367   11.0229   21.9948 O   0  0  0  0  0  0  0  0  0  0  0  0
  1  8  4  0
  1 12  4  0
  2  9  1  0
  2 11  4  0
  2 25  4  0
  3 12  4  0
  3 14  1  0
  3 23  4  0
  4 13  4  0
  4 21  4  0
  4 24  1  0
  5  8  4  0
  5 23  4  0
  6 18  2  0
  7 15  4  0
  7 16  1  0
  7 27  4  0
  8 18  1  0
 10 18  1  0
 10 20  1  0
 11 15  4  0
 11 26  1  0
 13 22  4  0
 16 19  1  0
 16 20  2  0
 17 19  4  0
 17 21  4  0
 19 22  4  0
 20 28  1  0
 25 27  4  0
M  END
$$$$

 Created by Python create_sdf_string function

 28 30  0  0  0  0  0  0  0  0999 V2000
   11.4592   11.2893   18.7941 C   0  0  0  0  0  0  0  0  0  0  0  0
    3.4202    7.9009   20.3866 C   0  0  0  0  0  0  0  0  0  0  0  0
   13.5280   10.3522   19.3586 C   0  0  0  0  0  0  0  0  0  0  0  0
    9.6923    5.6468   22.7891 C   0  0  0  0  0  0  0  0  0  0  0  0
   11.7756   10.2554   20.8841 N   0  0  0  0  0  0  0  0  0  0  0  0
    8.9876   11.9370   19.8757 O   0  0  0  0  0  0  0  0  0  0  0  0
    6.0167    8.4478   21.1089 C   0  0  0  0  0  0  0  0  0  0  0  0
   11.0002   10.8890   20.0262 C   0  0  0  0  0  0  0  0  0  0  0  0
    2.1721    7.7393   20.0315 O   0  0  0  0  0  0  0  0  0  0  0  0
    9.1107   10.3880   21.3769 N   0  0  0  0  0  0  0  0  0  0  0  0
    3.9102    9.2008   20.3124 C   0  0  0  0  0  0  0  0  0  0  0  0
   12.7292   10.9960   18.4597 C   0  0  0  0  0  0  0  0  0  0  0  0
    9.3798    6.6793   23.6625 C   0  0  0  0  0  0  0  0  0  0  0  0
   14.7425   10.0739   19.0802 O   0  0  0  0  0  0  0  0  0  0  0  0
    5.1894    9.4673   20.7118 C   0  0  0  0  0  0  0  0  0  0  0  0
    7.3773    8.8224   21.4870 C   0  0  0  0  0  0  0  0  0  0  0  0
    8.4391    6.6439   21.0235 C   0  0  0  0  0  0  0  0  0  0  0  0
    9.6494   11.1353   20.4167 C   0  0  0  0  0  0  0  0  0  0  0  0
    8.1431    7.6829   21.9046 C   0  0  0  0  0  0  0  0  0  0  0  0
    7.7796   10.1314   21.5115 N   0  0  0  0  0  0  0  0  0  0  0  0
    9.2768    5.6183   21.4437 C   0  0  0  0  0  0  0  0  0  0  0  0
    8.6315    7.7322   23.1768 C   0  0  0  0  0  0  0  0  0  0  0  0
   13.0537    9.9821   20.5781 C   0  0  0  0  0  0  0  0  0  0  0  0
   10.3850    4.6575   23.2386 O   0  0  0  0  0  0  0  0  0  0  0  0
    4.2069    6.8450   20.7994 C   0  0  0  0  0  0  0  0  0  0  0  0
    3.0726   10.1043   19.8522 O   0  0  0  0  0  0  0  0  0  0  0  0
    5.5057    7.1196   21.1155 C   0  0  0  0  0  0  0  0  0  0  0  0
    7.0367   11.0229   21.9948 O   0  0  0  0  0  0  0  0  0  0  0  0
  1  8  4  0
  1 12  4  0
  2  9  1  0
  2 11  4  0
  2 25  4  0
  3 12  4  0
  3 14  1  0
  3 23  4  0
  4 13  4  0
  4 21  4  0
  4 24  1  0
  5  8  4  0
  5 23  4  0
  6 18  2  0
  7 15  4  0
  7 16  1  0
  7 27  4  0
  8 18  1  0
 10 18  1  0
 10 20  1  0
 11 15  4  0
 11 26  1  0
 13 22  4  0
 16 19  1  0
 16 20  2  0
 17 19  4  0
 17 21  4  0
 19 22  4  0
 20 28  1  0
 25 27  4  0
M  END
$$$$

 Created by Python create_sdf_string function

 28 30  0  0  0  0  0  0  0  0999 V2000
   11.4592   11.2893   18.7941 C   0  0  0  0  0  0  0  0  0  0  0  0
    3.4202    7.9009   20.3866 C   0  0  0  0  0  0  0  0  0  0  0  0
   13.5280   10.3522   19.3586 C   0  0  0  0  0  0  0  0  0  0  0  0
    9.6923    5.6468   22.7891 C   0  0  0  0  0  0  0  0  0  0  0  0
   11.7756   10.2554   20.8841 N   0  0  0  0  0  0  0  0  0  0  0  0
    8.9876   11.9370   19.8757 O   0  0  0  0  0  0  0  0  0  0  0  0
    6.0167    8.4478   21.1089 C   0  0  0  0  0  0  0  0  0  0  0  0
   11.0002   10.8890   20.0262 C   0  0  0  0  0  0  0  0  0  0  0  0
    2.1721    7.7393   20.0315 O   0  0  0  0  0  0  0  0  0  0  0  0
    9.1107   10.3880   21.3769 N   0  0  0  0  0  0  0  0  0  0  0  0
    3.9102    9.2008   20.3124 C   0  0  0  0  0  0  0  0  0  0  0  0
   12.7292   10.9960   18.4597 C   0  0  0  0  0  0  0  0  0  0  0  0
    9.3798    6.6793   23.6625 C   0  0  0  0  0  0  0  0  0  0  0  0
   14.7425   10.0739   19.0802 O   0  0  0  0  0  0  0  0  0  0  0  0
    5.1894    9.4673   20.7118 C   0  0  0  0  0  0  0  0  0  0  0  0
    7.3773    8.8224   21.4870 C   0  0  0  0  0  0  0  0  0  0  0  0
    8.4391    6.6439   21.0235 C   0  0  0  0  0  0  0  0  0  0  0  0
    9.6494   11.1353   20.4167 C   0  0  0  0  0  0  0  0  0  0  0  0
    8.1431    7.6829   21.9046 C   0  0  0  0  0  0  0  0  0  0  0  0
    7.7796   10.1314   21.5115 N   0  0  0  0  0  0  0  0  0  0  0  0
    9.2768    5.6183   21.4437 C   0  0  0  0  0  0  0  0  0  0  0  0
    8.6315    7.7322   23.1768 C   0  0  0  0  0  0  0  0  0  0  0  0
   13.0537    9.9821   20.5781 C   0  0  0  0  0  0  0  0  0  0  0  0
   10.3850    4.6575   23.2386 O   0  0  0  0  0  0  0  0  0  0  0  0
    4.2069    6.8450   20.7994 C   0  0  0  0  0  0  0  0  0  0  0  0
    3.0726   10.1043   19.8522 O   0  0  0  0  0  0  0  0  0  0  0  0
    5.5057    7.1196   21.1155 C   0  0  0  0  0  0  0  0  0  0  0  0
    7.0367   11.0229   21.9948 O   0  0  0  0  0  0  0  0  0  0  0  0
  1  8  4  0
  1 12  4  0
  2  9  1  0
  2 11  4  0
  2 25  4  0
  3 12  4  0
  3 14  1  0
  3 23  4  0
  4 13  4  0
  4 21  4  0
  4 24  1  0
  5  8  4  0
  5 23  4  0
  6 18  2  0
  7 15  4  0
  7 16  1  0
  7 27  4  0
  8 18  1  0
 10 18  1  0
 10 20  1  0
 11 15  4  0
 11 26  1  0
 13 22  4  0
 16 19  1  0
 16 20  2  0
 17 19  4  0
 17 21  4  0
 19 22  4  0
 20 28  1  0
 25 27  4  0
M  END
$$$$

 Created by Python create_sdf_string function

 28 30  0  0  0  0  0  0  0  0999 V2000
   11.4592   11.2893   18.7941 C   0  0  0  0  0  0  0  0  0  0  0  0
    3.4202    7.9009   20.3866 C   0  0  0  0  0  0  0  0  0  0  0  0
   13.5280   10.3522   19.3586 C   0  0  0  0  0  0  0  0  0  0  0  0
    9.6923    5.6468   22.7891 C   0  0  0  0  0  0  0  0  0  0  0  0
   11.7756   10.2554   20.8841 N   0  0  0  0  0  0  0  0  0  0  0  0
    8.9876   11.9370   19.8757 O   0  0  0  0  0  0  0  0  0  0  0  0
    6.0167    8.4478   21.1089 C   0  0  0  0  0  0  0  0  0  0  0  0
   11.0002   10.8890   20.0262 C   0  0  0  0  0  0  0  0  0  0  0  0
    2.1721    7.7393   20.0315 O   0  0  0  0  0  0  0  0  0  0  0  0
    9.1107   10.3880   21.3769 N   0  0  0  0  0  0  0  0  0  0  0  0
    3.9102    9.2008   20.3124 C   0  0  0  0  0  0  0  0  0  0  0  0
   12.7292   10.9960   18.4597 C   0  0  0  0  0  0  0  0  0  0  0  0
    9.3798    6.6793   23.6625 C   0  0  0  0  0  0  0  0  0  0  0  0
   14.7425   10.0739   19.0802 O   0  0  0  0  0  0  0  0  0  0  0  0
    5.1894    9.4673   20.7118 C   0  0  0  0  0  0  0  0  0  0  0  0
    7.3773    8.8224   21.4870 C   0  0  0  0  0  0  0  0  0  0  0  0
    8.4391    6.6439   21.0235 C   0  0  0  0  0  0  0  0  0  0  0  0
    9.6494   11.1353   20.4167 C   0  0  0  0  0  0  0  0  0  0  0  0
    8.1431    7.6829   21.9046 C   0  0  0  0  0  0  0  0  0  0  0  0
    7.7796   10.1314   21.5115 N   0  0  0  0  0  0  0  0  0  0  0  0
    9.2768    5.6183   21.4437 C   0  0  0  0  0  0  0  0  0  0  0  0
    8.6315    7.7322   23.1768 C   0  0  0  0  0  0  0  0  0  0  0  0
   13.0537    9.9821   20.5781 C   0  0  0  0  0  0  0  0  0  0  0  0
   10.3850    4.6575   23.2386 O   0  0  0  0  0  0  0  0  0  0  0  0
    4.2069    6.8450   20.7994 C   0  0  0  0  0  0  0  0  0  0  0  0
    3.0726   10.1043   19.8522 O   0  0  0  0  0  0  0  0  0  0  0  0
    5.5057    7.1196   21.1155 C   0  0  0  0  0  0  0  0  0  0  0  0
    7.0367   11.0229   21.9948 O   0  0  0  0  0  0  0  0  0  0  0  0
  1  8  4  0
  1 12  4  0
  2  9  1  0
  2 11  4  0
  2 25  4  0
  3 12  4  0
  3 14  1  0
  3 23  4  0
  4 13  4  0
  4 21  4  0
  4 24  1  0
  5  8  4  0
  5 23  4  0
  6 18  2  0
  7 15  4  0
  7 16  1  0
  7 27  4  0
  8 18  1  0
 10 18  1  0
 10 20  1  0
 11 15  4  0
 11 26  1  0
 13 22  4  0
 16 19  1  0
 16 20  2  0
 17 19  4  0
 17 21  4  0
 19 22  4  0
 20 28  1  0
 25 27  4  0
M  END
$$$$

 Created by Python create_sdf_string function

 28 30  0  0  0  0  0  0  0  0999 V2000
   11.4592   11.2893   18.7941 C   0  0  0  0  0  0  0  0  0  0  0  0
    3.4202    7.9009   20.3866 C   0  0  0  0  0  0  0  0  0  0  0  0
   13.5280   10.3522   19.3586 C   0  0  0  0  0  0  0  0  0  0  0  0
    9.6923    5.6468   22.7891 C   0  0  0  0  0  0  0  0  0  0  0  0
   11.7756   10.2554   20.8841 N   0  0  0  0  0  0  0  0  0  0  0  0
    8.9876   11.9370   19.8757 O   0  0  0  0  0  0  0  0  0  0  0  0
    6.0167    8.4478   21.1089 C   0  0  0  0  0  0  0  0  0  0  0  0
   11.0002   10.8890   20.0262 C   0  0  0  0  0  0  0  0  0  0  0  0
    2.1721    7.7393   20.0315 O   0  0  0  0  0  0  0  0  0  0  0  0
    9.1107   10.3880   21.3769 N   0  0  0  0  0  0  0  0  0  0  0  0
    3.9102    9.2008   20.3124 C   0  0  0  0  0  0  0  0  0  0  0  0
   12.7292   10.9960   18.4597 C   0  0  0  0  0  0  0  0  0  0  0  0
    9.3798    6.6793   23.6625 C   0  0  0  0  0  0  0  0  0  0  0  0
   14.7425   10.0739   19.0802 O   0  0  0  0  0  0  0  0  0  0  0  0
    5.1894    9.4673   20.7118 C   0  0  0  0  0  0  0  0  0  0  0  0
    7.3773    8.8224   21.4870 C   0  0  0  0  0  0  0  0  0  0  0  0
    8.4391    6.6439   21.0235 C   0  0  0  0  0  0  0  0  0  0  0  0
    9.6494   11.1353   20.4167 C   0  0  0  0  0  0  0  0  0  0  0  0
    8.1431    7.6829   21.9046 C   0  0  0  0  0  0  0  0  0  0  0  0
    7.7796   10.1314   21.5115 N   0  0  0  0  0  0  0  0  0  0  0  0
    9.2768    5.6183   21.4437 C   0  0  0  0  0  0  0  0  0  0  0  0
    8.6315    7.7322   23.1768 C   0  0  0  0  0  0  0  0  0  0  0  0
   13.0537    9.9821   20.5781 C   0  0  0  0  0  0  0  0  0  0  0  0
   10.3850    4.6575   23.2386 O   0  0  0  0  0  0  0  0  0  0  0  0
    4.2069    6.8450   20.7994 C   0  0  0  0  0  0  0  0  0  0  0  0
    3.0726   10.1043   19.8522 O   0  0  0  0  0  0  0  0  0  0  0  0
    5.5057    7.1196   21.1155 C   0  0  0  0  0  0  0  0  0  0  0  0
    7.0367   11.0229   21.9948 O   0  0  0  0  0  0  0  0  0  0  0  0
  1  8  4  0
  1 12  4  0
  2  9  1  0
  2 11  4  0
  2 25  4  0
  3 12  4  0
  3 14  1  0
  3 23  4  0
  4 13  4  0
  4 21  4  0
  4 24  1  0
  5  8  4  0
  5 23  4  0
  6 18  2  0
  7 15  4  0
  7 16  1  0
  7 27  4  0
  8 18  1  0
 10 18  1  0
 10 20  1  0
 11 15  4  0
 11 26  1  0
 13 22  4  0
 16 19  1  0
 16 20  2  0
 17 19  4  0
 17 21  4  0
 19 22  4  0
 20 28  1  0
 25 27  4  0
M  END
$$$$

 Created by Python create_sdf_string function

 28 30  0  0  0  0  0  0  0  0999 V2000
   11.4592   11.2893   18.7941 C   0  0  0  0  0  0  0  0  0  0  0  0
    3.4202    7.9009   20.3866 C   0  0  0  0  0  0  0  0  0  0  0  0
   13.5280   10.3522   19.3586 C   0  0  0  0  0  0  0  0  0  0  0  0
    9.6923    5.6468   22.7891 C   0  0  0  0  0  0  0  0  0  0  0  0
   11.7756   10.2554   20.8841 N   0  0  0  0  0  0  0  0  0  0  0  0
    8.9876   11.9370   19.8757 O   0  0  0  0  0  0  0  0  0  0  0  0
    6.0167    8.4478   21.1089 C   0  0  0  0  0  0  0  0  0  0  0  0
   11.0002   10.8890   20.0262 C   0  0  0  0  0  0  0  0  0  0  0  0
    2.1721    7.7393   20.0315 O   0  0  0  0  0  0  0  0  0  0  0  0
    9.1107   10.3880   21.3769 N   0  0  0  0  0  0  0  0  0  0  0  0
    3.9102    9.2008   20.3124 C   0  0  0  0  0  0  0  0  0  0  0  0
   12.7292   10.9960   18.4597 C   0  0  0  0  0  0  0  0  0  0  0  0
    9.3798    6.6793   23.6625 C   0  0  0  0  0  0  0  0  0  0  0  0
   14.7425   10.0739   19.0802 O   0  0  0  0  0  0  0  0  0  0  0  0
    5.1894    9.4673   20.7118 C   0  0  0  0  0  0  0  0  0  0  0  0
    7.3773    8.8224   21.4870 C   0  0  0  0  0  0  0  0  0  0  0  0
    8.4391    6.6439   21.0235 C   0  0  0  0  0  0  0  0  0  0  0  0
    9.6494   11.1353   20.4167 C   0  0  0  0  0  0  0  0  0  0  0  0
    8.1431    7.6829   21.9046 C   0  0  0  0  0  0  0  0  0  0  0  0
    7.7796   10.1314   21.5115 N   0  0  0  0  0  0  0  0  0  0  0  0
    9.2768    5.6183   21.4437 C   0  0  0  0  0  0  0  0  0  0  0  0
    8.6315    7.7322   23.1768 C   0  0  0  0  0  0  0  0  0  0  0  0
   13.0537    9.9821   20.5781 C   0  0  0  0  0  0  0  0  0  0  0  0
   10.3850    4.6575   23.2386 O   0  0  0  0  0  0  0  0  0  0  0  0
    4.2069    6.8450   20.7994 C   0  0  0  0  0  0  0  0  0  0  0  0
    3.0726   10.1043   19.8522 O   0  0  0  0  0  0  0  0  0  0  0  0
    5.5057    7.1196   21.1155 C   0  0  0  0  0  0  0  0  0  0  0  0
    7.0367   11.0229   21.9948 O   0  0  0  0  0  0  0  0  0  0  0  0
  1  8  4  0
  1 12  4  0
  2  9  1  0
  2 11  4  0
  2 25  4  0
  3 12  4  0
  3 14  1  0
  3 23  4  0
  4 13  4  0
  4 21  4  0
  4 24  1  0
  5  8  4  0
  5 23  4  0
  6 18  2  0
  7 15  4  0
  7 16  1  0
  7 27  4  0
  8 18  1  0
 10 18  1  0
 10 20  1  0
 11 15  4  0
 11 26  1  0
 13 22  4  0
 16 19  1  0
 16 20  2  0
 17 19  4  0
 17 21  4  0
 19 22  4  0
 20 28  1  0
 25 27  4  0
M  END
$$$$

 Created by Python create_sdf_string function

 28 30  0  0  0  0  0  0  0  0999 V2000
   11.4592   11.2893   18.7941 C   0  0  0  0  0  0  0  0  0  0  0  0
    3.4202    7.9009   20.3866 C   0  0  0  0  0  0  0  0  0  0  0  0
   13.5280   10.3522   19.3586 C   0  0  0  0  0  0  0  0  0  0  0  0
    9.6923    5.6468   22.7891 C   0  0  0  0  0  0  0  0  0  0  0  0
   11.7756   10.2554   20.8841 N   0  0  0  0  0  0  0  0  0  0  0  0
    8.9876   11.9370   19.8757 O   0  0  0  0  0  0  0  0  0  0  0  0
    6.0167    8.4478   21.1089 C   0  0  0  0  0  0  0  0  0  0  0  0
   11.0002   10.8890   20.0262 C   0  0  0  0  0  0  0  0  0  0  0  0
    2.1721    7.7393   20.0315 O   0  0  0  0  0  0  0  0  0  0  0  0
    9.1107   10.3880   21.3769 N   0  0  0  0  0  0  0  0  0  0  0  0
    3.9102    9.2008   20.3124 C   0  0  0  0  0  0  0  0  0  0  0  0
   12.7292   10.9960   18.4597 C   0  0  0  0  0  0  0  0  0  0  0  0
    9.3798    6.6793   23.6625 C   0  0  0  0  0  0  0  0  0  0  0  0
   14.7425   10.0739   19.0802 O   0  0  0  0  0  0  0  0  0  0  0  0
    5.1894    9.4673   20.7118 C   0  0  0  0  0  0  0  0  0  0  0  0
    7.3773    8.8224   21.4870 C   0  0  0  0  0  0  0  0  0  0  0  0
    8.4391    6.6439   21.0235 C   0  0  0  0  0  0  0  0  0  0  0  0
    9.6494   11.1353   20.4167 C   0  0  0  0  0  0  0  0  0  0  0  0
    8.1431    7.6829   21.9046 C   0  0  0  0  0  0  0  0  0  0  0  0
    7.7796   10.1314   21.5115 N   0  0  0  0  0  0  0  0  0  0  0  0
    9.2768    5.6183   21.4437 C   0  0  0  0  0  0  0  0  0  0  0  0
    8.6315    7.7322   23.1768 C   0  0  0  0  0  0  0  0  0  0  0  0
   13.0537    9.9821   20.5781 C   0  0  0  0  0  0  0  0  0  0  0  0
   10.3850    4.6575   23.2386 O   0  0  0  0  0  0  0  0  0  0  0  0
    4.2069    6.8450   20.7994 C   0  0  0  0  0  0  0  0  0  0  0  0
    3.0726   10.1043   19.8522 O   0  0  0  0  0  0  0  0  0  0  0  0
    5.5057    7.1196   21.1155 C   0  0  0  0  0  0  0  0  0  0  0  0
    7.0367   11.0229   21.9948 O   0  0  0  0  0  0  0  0  0  0  0  0
  1  8  4  0
  1 12  4  0
  2  9  1  0
  2 11  4  0
  2 25  4  0
  3 12  4  0
  3 14  1  0
  3 23  4  0
  4 13  4  0
  4 21  4  0
  4 24  1  0
  5  8  4  0
  5 23  4  0
  6 18  2  0
  7 15  4  0
  7 16  1  0
  7 27  4  0
  8 18  1  0
 10 18  1  0
 10 20  1  0
 11 15  4  0
 11 26  1  0
 13 22  4  0
 16 19  1  0
 16 20  2  0
 17 19  4  0
 17 21  4  0
 19 22  4  0
 20 28  1  0
 25 27  4  0
M  END
$$$$

 Created by Python create_sdf_string function

 28 30  0  0  0  0  0  0  0  0999 V2000
   11.4592   11.2893   18.7941 C   0  0  0  0  0  0  0  0  0  0  0  0
    3.4202    7.9009   20.3866 C   0  0  0  0  0  0  0  0  0  0  0  0
   13.5280   10.3522   19.3586 C   0  0  0  0  0  0  0  0  0  0  0  0
    9.6923    5.6468   22.7891 C   0  0  0  0  0  0  0  0  0  0  0  0
   11.7756   10.2554   20.8841 N   0  0  0  0  0  0  0  0  0  0  0  0
    8.9876   11.9370   19.8757 O   0  0  0  0  0  0  0  0  0  0  0  0
    6.0167    8.4478   21.1089 C   0  0  0  0  0  0  0  0  0  0  0  0
   11.0002   10.8890   20.0262 C   0  0  0  0  0  0  0  0  0  0  0  0
    2.1721    7.7393   20.0315 O   0  0  0  0  0  0  0  0  0  0  0  0
    9.1107   10.3880   21.3769 N   0  0  0  0  0  0  0  0  0  0  0  0
    3.9102    9.2008   20.3124 C   0  0  0  0  0  0  0  0  0  0  0  0
   12.7292   10.9960   18.4597 C   0  0  0  0  0  0  0  0  0  0  0  0
    9.3798    6.6793   23.6625 C   0  0  0  0  0  0  0  0  0  0  0  0
   14.7425   10.0739   19.0802 O   0  0  0  0  0  0  0  0  0  0  0  0
    5.1894    9.4673   20.7118 C   0  0  0  0  0  0  0  0  0  0  0  0
    7.3773    8.8224   21.4870 C   0  0  0  0  0  0  0  0  0  0  0  0
    8.4391    6.6439   21.0235 C   0  0  0  0  0  0  0  0  0  0  0  0
    9.6494   11.1353   20.4167 C   0  0  0  0  0  0  0  0  0  0  0  0
    8.1431    7.6829   21.9046 C   0  0  0  0  0  0  0  0  0  0  0  0
    7.7796   10.1314   21.5115 N   0  0  0  0  0  0  0  0  0  0  0  0
    9.2768    5.6183   21.4437 C   0  0  0  0  0  0  0  0  0  0  0  0
    8.6315    7.7322   23.1768 C   0  0  0  0  0  0  0  0  0  0  0  0
   13.0537    9.9821   20.5781 C   0  0  0  0  0  0  0  0  0  0  0  0
   10.3850    4.6575   23.2386 O   0  0  0  0  0  0  0  0  0  0  0  0
    4.2069    6.8450   20.7994 C   0  0  0  0  0  0  0  0  0  0  0  0
    3.0726   10.1043   19.8522 O   0  0  0  0  0  0  0  0  0  0  0  0
    5.5057    7.1196   21.1155 C   0  0  0  0  0  0  0  0  0  0  0  0
    7.0367   11.0229   21.9948 O   0  0  0  0  0  0  0  0  0  0  0  0
  1  8  4  0
  1 12  4  0
  2  9  1  0
  2 11  4  0
  2 25  4  0
  3 12  4  0
  3 14  1  0
  3 23  4  0
  4 13  4  0
  4 21  4  0
  4 24  1  0
  5  8  4  0
  5 23  4  0
  6 18  2  0
  7 15  4  0
  7 16  1  0
  7 27  4  0
  8 18  1  0
 10 18  1  0
 10 20  1  0
 11 15  4  0
 11 26  1  0
 13 22  4  0
 16 19  1  0
 16 20  2  0
 17 19  4  0
 17 21  4  0
 19 22  4  0
 20 28  1  0
 25 27  4  0
M  END
$$$$

 Created by Python create_sdf_string function

 28 30  0  0  0  0  0  0  0  0999 V2000
   11.4592   11.2893   18.7941 C   0  0  0  0  0  0  0  0  0  0  0  0
    3.4202    7.9009   20.3866 C   0  0  0  0  0  0  0  0  0  0  0  0
   13.5280   10.3522   19.3586 C   0  0  0  0  0  0  0  0  0  0  0  0
    9.6923    5.6468   22.7891 C   0  0  0  0  0  0  0  0  0  0  0  0
   11.7756   10.2554   20.8841 N   0  0  0  0  0  0  0  0  0  0  0  0
    8.9876   11.9370   19.8757 O   0  0  0  0  0  0  0  0  0  0  0  0
    6.0167    8.4478   21.1089 C   0  0  0  0  0  0  0  0  0  0  0  0
   11.0002   10.8890   20.0262 C   0  0  0  0  0  0  0  0  0  0  0  0
    2.1721    7.7393   20.0315 O   0  0  0  0  0  0  0  0  0  0  0  0
    9.1107   10.3880   21.3769 N   0  0  0  0  0  0  0  0  0  0  0  0
    3.9102    9.2008   20.3124 C   0  0  0  0  0  0  0  0  0  0  0  0
   12.7292   10.9960   18.4597 C   0  0  0  0  0  0  0  0  0  0  0  0
    9.3798    6.6793   23.6625 C   0  0  0  0  0  0  0  0  0  0  0  0
   14.7425   10.0739   19.0802 O   0  0  0  0  0  0  0  0  0  0  0  0
    5.1894    9.4673   20.7118 C   0  0  0  0  0  0  0  0  0  0  0  0
    7.3773    8.8224   21.4870 C   0  0  0  0  0  0  0  0  0  0  0  0
    8.4391    6.6439   21.0235 C   0  0  0  0  0  0  0  0  0  0  0  0
    9.6494   11.1353   20.4167 C   0  0  0  0  0  0  0  0  0  0  0  0
    8.1431    7.6829   21.9046 C   0  0  0  0  0  0  0  0  0  0  0  0
    7.7796   10.1314   21.5115 N   0  0  0  0  0  0  0  0  0  0  0  0
    9.2768    5.6183   21.4437 C   0  0  0  0  0  0  0  0  0  0  0  0
    8.6315    7.7322   23.1768 C   0  0  0  0  0  0  0  0  0  0  0  0
   13.0537    9.9821   20.5781 C   0  0  0  0  0  0  0  0  0  0  0  0
   10.3850    4.6575   23.2386 O   0  0  0  0  0  0  0  0  0  0  0  0
    4.2069    6.8450   20.7994 C   0  0  0  0  0  0  0  0  0  0  0  0
    3.0726   10.1043   19.8522 O   0  0  0  0  0  0  0  0  0  0  0  0
    5.5057    7.1196   21.1155 C   0  0  0  0  0  0  0  0  0  0  0  0
    7.0367   11.0229   21.9948 O   0  0  0  0  0  0  0  0  0  0  0  0
  1  8  4  0
  1 12  4  0
  2  9  1  0
  2 11  4  0
  2 25  4  0
  3 12  4  0
  3 14  1  0
  3 23  4  0
  4 13  4  0
  4 21  4  0
  4 24  1  0
  5  8  4  0
  5 23  4  0
  6 18  2  0
  7 15  4  0
  7 16  1  0
  7 27  4  0
  8 18  1  0
 10 18  1  0
 10 20  1  0
 11 15  4  0
 11 26  1  0
 13 22  4  0
 16 19  1  0
 16 20  2  0
 17 19  4  0
 17 21  4  0
 19 22  4  0
 20 28  1  0
 25 27  4  0
M  END
$$$$

 Created by Python create_sdf_string function

 28 30  0  0  0  0  0  0  0  0999 V2000
   11.4592   11.2893   18.7941 C   0  0  0  0  0  0  0  0  0  0  0  0
    3.4202    7.9009   20.3866 C   0  0  0  0  0  0  0  0  0  0  0  0
   13.5280   10.3522   19.3586 C   0  0  0  0  0  0  0  0  0  0  0  0
    9.6923    5.6468   22.7891 C   0  0  0  0  0  0  0  0  0  0  0  0
   11.7756   10.2554   20.8841 N   0  0  0  0  0  0  0  0  0  0  0  0
    8.9876   11.9370   19.8757 O   0  0  0  0  0  0  0  0  0  0  0  0
    6.0167    8.4478   21.1089 C   0  0  0  0  0  0  0  0  0  0  0  0
   11.0002   10.8890   20.0262 C   0  0  0  0  0  0  0  0  0  0  0  0
    2.1721    7.7393   20.0315 O   0  0  0  0  0  0  0  0  0  0  0  0
    9.1107   10.3880   21.3769 N   0  0  0  0  0  0  0  0  0  0  0  0
    3.9102    9.2008   20.3124 C   0  0  0  0  0  0  0  0  0  0  0  0
   12.7292   10.9960   18.4597 C   0  0  0  0  0  0  0  0  0  0  0  0
    9.3798    6.6793   23.6625 C   0  0  0  0  0  0  0  0  0  0  0  0
   14.7425   10.0739   19.0802 O   0  0  0  0  0  0  0  0  0  0  0  0
    5.1894    9.4673   20.7118 C   0  0  0  0  0  0  0  0  0  0  0  0
    7.3773    8.8224   21.4870 C   0  0  0  0  0  0  0  0  0  0  0  0
    8.4391    6.6439   21.0235 C   0  0  0  0  0  0  0  0  0  0  0  0
    9.6494   11.1353   20.4167 C   0  0  0  0  0  0  0  0  0  0  0  0
    8.1431    7.6829   21.9046 C   0  0  0  0  0  0  0  0  0  0  0  0
    7.7796   10.1314   21.5115 N   0  0  0  0  0  0  0  0  0  0  0  0
    9.2768    5.6183   21.4437 C   0  0  0  0  0  0  0  0  0  0  0  0
    8.6315    7.7322   23.1768 C   0  0  0  0  0  0  0  0  0  0  0  0
   13.0537    9.9821   20.5781 C   0  0  0  0  0  0  0  0  0  0  0  0
   10.3850    4.6575   23.2386 O   0  0  0  0  0  0  0  0  0  0  0  0
    4.2069    6.8450   20.7994 C   0  0  0  0  0  0  0  0  0  0  0  0
    3.0726   10.1043   19.8522 O   0  0  0  0  0  0  0  0  0  0  0  0
    5.5057    7.1196   21.1155 C   0  0  0  0  0  0  0  0  0  0  0  0
    7.0367   11.0229   21.9948 O   0  0  0  0  0  0  0  0  0  0  0  0
  1  8  4  0
  1 12  4  0
  2  9  1  0
  2 11  4  0
  2 25  4  0
  3 12  4  0
  3 14  1  0
  3 23  4  0
  4 13  4  0
  4 21  4  0
  4 24  1  0
  5  8  4  0
  5 23  4  0
  6 18  2  0
  7 15  4  0
  7 16  1  0
  7 27  4  0
  8 18  1  0
 10 18  1  0
 10 20  1  0
 11 15  4  0
 11 26  1  0
 13 22  4  0
 16 19  1  0
 16 20  2  0
 17 19  4  0
 17 21  4  0
 19 22  4  0
 20 28  1  0
 25 27  4  0
M  END
$$$$

 Created by Python create_sdf_string function

 28 30  0  0  0  0  0  0  0  0999 V2000
   11.4592   11.2893   18.7941 C   0  0  0  0  0  0  0  0  0  0  0  0
    3.4202    7.9009   20.3866 C   0  0  0  0  0  0  0  0  0  0  0  0
   13.5280   10.3522   19.3586 C   0  0  0  0  0  0  0  0  0  0  0  0
    9.6923    5.6468   22.7891 C   0  0  0  0  0  0  0  0  0  0  0  0
   11.7756   10.2554   20.8841 N   0  0  0  0  0  0  0  0  0  0  0  0
    8.9876   11.9370   19.8757 O   0  0  0  0  0  0  0  0  0  0  0  0
    6.0167    8.4478   21.1089 C   0  0  0  0  0  0  0  0  0  0  0  0
   11.0002   10.8890   20.0262 C   0  0  0  0  0  0  0  0  0  0  0  0
    2.1721    7.7393   20.0315 O   0  0  0  0  0  0  0  0  0  0  0  0
    9.1107   10.3880   21.3769 N   0  0  0  0  0  0  0  0  0  0  0  0
    3.9102    9.2008   20.3124 C   0  0  0  0  0  0  0  0  0  0  0  0
   12.7292   10.9960   18.4597 C   0  0  0  0  0  0  0  0  0  0  0  0
    9.3798    6.6793   23.6625 C   0  0  0  0  0  0  0  0  0  0  0  0
   14.7425   10.0739   19.0802 O   0  0  0  0  0  0  0  0  0  0  0  0
    5.1894    9.4673   20.7118 C   0  0  0  0  0  0  0  0  0  0  0  0
    7.3773    8.8224   21.4870 C   0  0  0  0  0  0  0  0  0  0  0  0
    8.4391    6.6439   21.0235 C   0  0  0  0  0  0  0  0  0  0  0  0
    9.6494   11.1353   20.4167 C   0  0  0  0  0  0  0  0  0  0  0  0
    8.1431    7.6829   21.9046 C   0  0  0  0  0  0  0  0  0  0  0  0
    7.7796   10.1314   21.5115 N   0  0  0  0  0  0  0  0  0  0  0  0
    9.2768    5.6183   21.4437 C   0  0  0  0  0  0  0  0  0  0  0  0
    8.6315    7.7322   23.1768 C   0  0  0  0  0  0  0  0  0  0  0  0
   13.0537    9.9821   20.5781 C   0  0  0  0  0  0  0  0  0  0  0  0
   10.3850    4.6575   23.2386 O   0  0  0  0  0  0  0  0  0  0  0  0
    4.2069    6.8450   20.7994 C   0  0  0  0  0  0  0  0  0  0  0  0
    3.0726   10.1043   19.8522 O   0  0  0  0  0  0  0  0  0  0  0  0
    5.5057    7.1196   21.1155 C   0  0  0  0  0  0  0  0  0  0  0  0
    7.0367   11.0229   21.9948 O   0  0  0  0  0  0  0  0  0  0  0  0
  1  8  4  0
  1 12  4  0
  2  9  1  0
  2 11  4  0
  2 25  4  0
  3 12  4  0
  3 14  1  0
  3 23  4  0
  4 13  4  0
  4 21  4  0
  4 24  1  0
  5  8  4  0
  5 23  4  0
  6 18  2  0
  7 15  4  0
  7 16  1  0
  7 27  4  0
  8 18  1  0
 10 18  1  0
 10 20  1  0
 11 15  4  0
 11 26  1  0
 13 22  4  0
 16 19  1  0
 16 20  2  0
 17 19  4  0
 17 21  4  0
 19 22  4  0
 20 28  1  0
 25 27  4  0
M  END
$$$$

 Created by Python create_sdf_string function

 28 30  0  0  0  0  0  0  0  0999 V2000
   11.4592   11.2893   18.7941 C   0  0  0  0  0  0  0  0  0  0  0  0
    3.4202    7.9009   20.3866 C   0  0  0  0  0  0  0  0  0  0  0  0
   13.5280   10.3522   19.3586 C   0  0  0  0  0  0  0  0  0  0  0  0
    9.6923    5.6468   22.7891 C   0  0  0  0  0  0  0  0  0  0  0  0
   11.7756   10.2554   20.8841 N   0  0  0  0  0  0  0  0  0  0  0  0
    8.9876   11.9370   19.8757 O   0  0  0  0  0  0  0  0  0  0  0  0
    6.0167    8.4478   21.1089 C   0  0  0  0  0  0  0  0  0  0  0  0
   11.0002   10.8890   20.0262 C   0  0  0  0  0  0  0  0  0  0  0  0
    2.1721    7.7393   20.0315 O   0  0  0  0  0  0  0  0  0  0  0  0
    9.1107   10.3880   21.3769 N   0  0  0  0  0  0  0  0  0  0  0  0
    3.9102    9.2008   20.3124 C   0  0  0  0  0  0  0  0  0  0  0  0
   12.7292   10.9960   18.4597 C   0  0  0  0  0  0  0  0  0  0  0  0
    9.3798    6.6793   23.6625 C   0  0  0  0  0  0  0  0  0  0  0  0
   14.7425   10.0739   19.0802 O   0  0  0  0  0  0  0  0  0  0  0  0
    5.1894    9.4673   20.7118 C   0  0  0  0  0  0  0  0  0  0  0  0
    7.3773    8.8224   21.4870 C   0  0  0  0  0  0  0  0  0  0  0  0
    8.4391    6.6439   21.0235 C   0  0  0  0  0  0  0  0  0  0  0  0
    9.6494   11.1353   20.4167 C   0  0  0  0  0  0  0  0  0  0  0  0
    8.1431    7.6829   21.9046 C   0  0  0  0  0  0  0  0  0  0  0  0
    7.7796   10.1314   21.5115 N   0  0  0  0  0  0  0  0  0  0  0  0
    9.2768    5.6183   21.4437 C   0  0  0  0  0  0  0  0  0  0  0  0
    8.6315    7.7322   23.1768 C   0  0  0  0  0  0  0  0  0  0  0  0
   13.0537    9.9821   20.5781 C   0  0  0  0  0  0  0  0  0  0  0  0
   10.3850    4.6575   23.2386 O   0  0  0  0  0  0  0  0  0  0  0  0
    4.2069    6.8450   20.7994 C   0  0  0  0  0  0  0  0  0  0  0  0
    3.0726   10.1043   19.8522 O   0  0  0  0  0  0  0  0  0  0  0  0
    5.5057    7.1196   21.1155 C   0  0  0  0  0  0  0  0  0  0  0  0
    7.0367   11.0229   21.9948 O   0  0  0  0  0  0  0  0  0  0  0  0
  1  8  4  0
  1 12  4  0
  2  9  1  0
  2 11  4  0
  2 25  4  0
  3 12  4  0
  3 14  1  0
  3 23  4  0
  4 13  4  0
  4 21  4  0
  4 24  1  0
  5  8  4  0
  5 23  4  0
  6 18  2  0
  7 15  4  0
  7 16  1  0
  7 27  4  0
  8 18  1  0
 10 18  1  0
 10 20  1  0
 11 15  4  0
 11 26  1  0
 13 22  4  0
 16 19  1  0
 16 20  2  0
 17 19  4  0
 17 21  4  0
 19 22  4  0
 20 28  1  0
 25 27  4  0
M  END
$$$$

 Created by Python create_sdf_string function

 28 30  0  0  0  0  0  0  0  0999 V2000
   11.4592   11.2893   18.7941 C   0  0  0  0  0  0  0  0  0  0  0  0
    3.4202    7.9009   20.3866 C   0  0  0  0  0  0  0  0  0  0  0  0
   13.5280   10.3522   19.3586 C   0  0  0  0  0  0  0  0  0  0  0  0
    9.6923    5.6468   22.7891 C   0  0  0  0  0  0  0  0  0  0  0  0
   11.7756   10.2554   20.8841 N   0  0  0  0  0  0  0  0  0  0  0  0
    8.9876   11.9370   19.8757 O   0  0  0  0  0  0  0  0  0  0  0  0
    6.0167    8.4478   21.1089 C   0  0  0  0  0  0  0  0  0  0  0  0
   11.0002   10.8890   20.0262 C   0  0  0  0  0  0  0  0  0  0  0  0
    2.1721    7.7393   20.0315 O   0  0  0  0  0  0  0  0  0  0  0  0
    9.1107   10.3880   21.3769 N   0  0  0  0  0  0  0  0  0  0  0  0
    3.9102    9.2008   20.3124 C   0  0  0  0  0  0  0  0  0  0  0  0
   12.7292   10.9960   18.4597 C   0  0  0  0  0  0  0  0  0  0  0  0
    9.3798    6.6793   23.6625 C   0  0  0  0  0  0  0  0  0  0  0  0
   14.7425   10.0739   19.0802 O   0  0  0  0  0  0  0  0  0  0  0  0
    5.1894    9.4673   20.7118 C   0  0  0  0  0  0  0  0  0  0  0  0
    7.3773    8.8224   21.4870 C   0  0  0  0  0  0  0  0  0  0  0  0
    8.4391    6.6439   21.0235 C   0  0  0  0  0  0  0  0  0  0  0  0
    9.6494   11.1353   20.4167 C   0  0  0  0  0  0  0  0  0  0  0  0
    8.1431    7.6829   21.9046 C   0  0  0  0  0  0  0  0  0  0  0  0
    7.7796   10.1314   21.5115 N   0  0  0  0  0  0  0  0  0  0  0  0
    9.2768    5.6183   21.4437 C   0  0  0  0  0  0  0  0  0  0  0  0
    8.6315    7.7322   23.1768 C   0  0  0  0  0  0  0  0  0  0  0  0
   13.0537    9.9821   20.5781 C   0  0  0  0  0  0  0  0  0  0  0  0
   10.3850    4.6575   23.2386 O   0  0  0  0  0  0  0  0  0  0  0  0
    4.2069    6.8450   20.7994 C   0  0  0  0  0  0  0  0  0  0  0  0
    3.0726   10.1043   19.8522 O   0  0  0  0  0  0  0  0  0  0  0  0
    5.5057    7.1196   21.1155 C   0  0  0  0  0  0  0  0  0  0  0  0
    7.0367   11.0229   21.9948 O   0  0  0  0  0  0  0  0  0  0  0  0
  1  8  4  0
  1 12  4  0
  2  9  1  0
  2 11  4  0
  2 25  4  0
  3 12  4  0
  3 14  1  0
  3 23  4  0
  4 13  4  0
  4 21  4  0
  4 24  1  0
  5  8  4  0
  5 23  4  0
  6 18  2  0
  7 15  4  0
  7 16  1  0
  7 27  4  0
  8 18  1  0
 10 18  1  0
 10 20  1  0
 11 15  4  0
 11 26  1  0
 13 22  4  0
 16 19  1  0
 16 20  2  0
 17 19  4  0
 17 21  4  0
 19 22  4  0
 20 28  1  0
 25 27  4  0
M  END
$$$$

 Created by Python create_sdf_string function

 28 30  0  0  0  0  0  0  0  0999 V2000
   11.4592   11.2893   18.7941 C   0  0  0  0  0  0  0  0  0  0  0  0
    3.4202    7.9009   20.3866 C   0  0  0  0  0  0  0  0  0  0  0  0
   13.5280   10.3522   19.3586 C   0  0  0  0  0  0  0  0  0  0  0  0
    9.6923    5.6468   22.7891 C   0  0  0  0  0  0  0  0  0  0  0  0
   11.7756   10.2554   20.8841 N   0  0  0  0  0  0  0  0  0  0  0  0
    8.9876   11.9370   19.8757 O   0  0  0  0  0  0  0  0  0  0  0  0
    6.0167    8.4478   21.1089 C   0  0  0  0  0  0  0  0  0  0  0  0
   11.0002   10.8890   20.0262 C   0  0  0  0  0  0  0  0  0  0  0  0
    2.1721    7.7393   20.0315 O   0  0  0  0  0  0  0  0  0  0  0  0
    9.1107   10.3880   21.3769 N   0  0  0  0  0  0  0  0  0  0  0  0
    3.9102    9.2008   20.3124 C   0  0  0  0  0  0  0  0  0  0  0  0
   12.7292   10.9960   18.4597 C   0  0  0  0  0  0  0  0  0  0  0  0
    9.3798    6.6793   23.6625 C   0  0  0  0  0  0  0  0  0  0  0  0
   14.7425   10.0739   19.0802 O   0  0  0  0  0  0  0  0  0  0  0  0
    5.1894    9.4673   20.7118 C   0  0  0  0  0  0  0  0  0  0  0  0
    7.3773    8.8224   21.4870 C   0  0  0  0  0  0  0  0  0  0  0  0
    8.4391    6.6439   21.0235 C   0  0  0  0  0  0  0  0  0  0  0  0
    9.6494   11.1353   20.4167 C   0  0  0  0  0  0  0  0  0  0  0  0
    8.1431    7.6829   21.9046 C   0  0  0  0  0  0  0  0  0  0  0  0
    7.7796   10.1314   21.5115 N   0  0  0  0  0  0  0  0  0  0  0  0
    9.2768    5.6183   21.4437 C   0  0  0  0  0  0  0  0  0  0  0  0
    8.6315    7.7322   23.1768 C   0  0  0  0  0  0  0  0  0  0  0  0
   13.0537    9.9821   20.5781 C   0  0  0  0  0  0  0  0  0  0  0  0
   10.3850    4.6575   23.2386 O   0  0  0  0  0  0  0  0  0  0  0  0
    4.2069    6.8450   20.7994 C   0  0  0  0  0  0  0  0  0  0  0  0
    3.0726   10.1043   19.8522 O   0  0  0  0  0  0  0  0  0  0  0  0
    5.5057    7.1196   21.1155 C   0  0  0  0  0  0  0  0  0  0  0  0
    7.0367   11.0229   21.9948 O   0  0  0  0  0  0  0  0  0  0  0  0
  1  8  4  0
  1 12  4  0
  2  9  1  0
  2 11  4  0
  2 25  4  0
  3 12  4  0
  3 14  1  0
  3 23  4  0
  4 13  4  0
  4 21  4  0
  4 24  1  0
  5  8  4  0
  5 23  4  0
  6 18  2  0
  7 15  4  0
  7 16  1  0
  7 27  4  0
  8 18  1  0
 10 18  1  0
 10 20  1  0
 11 15  4  0
 11 26  1  0
 13 22  4  0
 16 19  1  0
 16 20  2  0
 17 19  4  0
 17 21  4  0
 19 22  4  0
 20 28  1  0
 25 27  4  0
M  END
$$$$

 Created by Python create_sdf_string function

 28 30  0  0  0  0  0  0  0  0999 V2000
   11.4592   11.2893   18.7941 C   0  0  0  0  0  0  0  0  0  0  0  0
    3.4202    7.9009   20.3866 C   0  0  0  0  0  0  0  0  0  0  0  0
   13.5280   10.3522   19.3586 C   0  0  0  0  0  0  0  0  0  0  0  0
    9.6923    5.6468   22.7891 C   0  0  0  0  0  0  0  0  0  0  0  0
   11.7756   10.2554   20.8841 N   0  0  0  0  0  0  0  0  0  0  0  0
    8.9876   11.9370   19.8757 O   0  0  0  0  0  0  0  0  0  0  0  0
    6.0167    8.4478   21.1089 C   0  0  0  0  0  0  0  0  0  0  0  0
   11.0002   10.8890   20.0262 C   0  0  0  0  0  0  0  0  0  0  0  0
    2.1721    7.7393   20.0315 O   0  0  0  0  0  0  0  0  0  0  0  0
    9.1107   10.3880   21.3769 N   0  0  0  0  0  0  0  0  0  0  0  0
    3.9102    9.2008   20.3124 C   0  0  0  0  0  0  0  0  0  0  0  0
   12.7292   10.9960   18.4597 C   0  0  0  0  0  0  0  0  0  0  0  0
    9.3798    6.6793   23.6625 C   0  0  0  0  0  0  0  0  0  0  0  0
   14.7425   10.0739   19.0802 O   0  0  0  0  0  0  0  0  0  0  0  0
    5.1894    9.4673   20.7118 C   0  0  0  0  0  0  0  0  0  0  0  0
    7.3773    8.8224   21.4870 C   0  0  0  0  0  0  0  0  0  0  0  0
    8.4391    6.6439   21.0235 C   0  0  0  0  0  0  0  0  0  0  0  0
    9.6494   11.1353   20.4167 C   0  0  0  0  0  0  0  0  0  0  0  0
    8.1431    7.6829   21.9046 C   0  0  0  0  0  0  0  0  0  0  0  0
    7.7796   10.1314   21.5115 N   0  0  0  0  0  0  0  0  0  0  0  0
    9.2768    5.6183   21.4437 C   0  0  0  0  0  0  0  0  0  0  0  0
    8.6315    7.7322   23.1768 C   0  0  0  0  0  0  0  0  0  0  0  0
   13.0537    9.9821   20.5781 C   0  0  0  0  0  0  0  0  0  0  0  0
   10.3850    4.6575   23.2386 O   0  0  0  0  0  0  0  0  0  0  0  0
    4.2069    6.8450   20.7994 C   0  0  0  0  0  0  0  0  0  0  0  0
    3.0726   10.1043   19.8522 O   0  0  0  0  0  0  0  0  0  0  0  0
    5.5057    7.1196   21.1155 C   0  0  0  0  0  0  0  0  0  0  0  0
    7.0367   11.0229   21.9948 O   0  0  0  0  0  0  0  0  0  0  0  0
  1  8  4  0
  1 12  4  0
  2  9  1  0
  2 11  4  0
  2 25  4  0
  3 12  4  0
  3 14  1  0
  3 23  4  0
  4 13  4  0
  4 21  4  0
  4 24  1  0
  5  8  4  0
  5 23  4  0
  6 18  2  0
  7 15  4  0
  7 16  1  0
  7 27  4  0
  8 18  1  0
 10 18  1  0
 10 20  1  0
 11 15  4  0
 11 26  1  0
 13 22  4  0
 16 19  1  0
 16 20  2  0
 17 19  4  0
 17 21  4  0
 19 22  4  0
 20 28  1  0
 25 27  4  0
M  END
$$$$

 Created by Python create_sdf_string function

 28 30  0  0  0  0  0  0  0  0999 V2000
   11.4592   11.2893   18.7941 C   0  0  0  0  0  0  0  0  0  0  0  0
    3.4202    7.9009   20.3866 C   0  0  0  0  0  0  0  0  0  0  0  0
   13.5280   10.3522   19.3586 C   0  0  0  0  0  0  0  0  0  0  0  0
    9.6923    5.6468   22.7891 C   0  0  0  0  0  0  0  0  0  0  0  0
   11.7756   10.2554   20.8841 N   0  0  0  0  0  0  0  0  0  0  0  0
    8.9876   11.9370   19.8757 O   0  0  0  0  0  0  0  0  0  0  0  0
    6.0167    8.4478   21.1089 C   0  0  0  0  0  0  0  0  0  0  0  0
   11.0002   10.8890   20.0262 C   0  0  0  0  0  0  0  0  0  0  0  0
    2.1721    7.7393   20.0315 O   0  0  0  0  0  0  0  0  0  0  0  0
    9.1107   10.3880   21.3769 N   0  0  0  0  0  0  0  0  0  0  0  0
    3.9102    9.2008   20.3124 C   0  0  0  0  0  0  0  0  0  0  0  0
   12.7292   10.9960   18.4597 C   0  0  0  0  0  0  0  0  0  0  0  0
    9.3798    6.6793   23.6625 C   0  0  0  0  0  0  0  0  0  0  0  0
   14.7425   10.0739   19.0802 O   0  0  0  0  0  0  0  0  0  0  0  0
    5.1894    9.4673   20.7118 C   0  0  0  0  0  0  0  0  0  0  0  0
    7.3773    8.8224   21.4870 C   0  0  0  0  0  0  0  0  0  0  0  0
    8.4391    6.6439   21.0235 C   0  0  0  0  0  0  0  0  0  0  0  0
    9.6494   11.1353   20.4167 C   0  0  0  0  0  0  0  0  0  0  0  0
    8.1431    7.6829   21.9046 C   0  0  0  0  0  0  0  0  0  0  0  0
    7.7796   10.1314   21.5115 N   0  0  0  0  0  0  0  0  0  0  0  0
    9.2768    5.6183   21.4437 C   0  0  0  0  0  0  0  0  0  0  0  0
    8.6315    7.7322   23.1768 C   0  0  0  0  0  0  0  0  0  0  0  0
   13.0537    9.9821   20.5781 C   0  0  0  0  0  0  0  0  0  0  0  0
   10.3850    4.6575   23.2386 O   0  0  0  0  0  0  0  0  0  0  0  0
    4.2069    6.8450   20.7994 C   0  0  0  0  0  0  0  0  0  0  0  0
    3.0726   10.1043   19.8522 O   0  0  0  0  0  0  0  0  0  0  0  0
    5.5057    7.1196   21.1155 C   0  0  0  0  0  0  0  0  0  0  0  0
    7.0367   11.0229   21.9948 O   0  0  0  0  0  0  0  0  0  0  0  0
  1  8  4  0
  1 12  4  0
  2  9  1  0
  2 11  4  0
  2 25  4  0
  3 12  4  0
  3 14  1  0
  3 23  4  0
  4 13  4  0
  4 21  4  0
  4 24  1  0
  5  8  4  0
  5 23  4  0
  6 18  2  0
  7 15  4  0
  7 16  1  0
  7 27  4  0
  8 18  1  0
 10 18  1  0
 10 20  1  0
 11 15  4  0
 11 26  1  0
 13 22  4  0
 16 19  1  0
 16 20  2  0
 17 19  4  0
 17 21  4  0
 19 22  4  0
 20 28  1  0
 25 27  4  0
M  END
$$$$

 Created by Python create_sdf_string function

 28 30  0  0  0  0  0  0  0  0999 V2000
   11.4592   11.2893   18.7941 C   0  0  0  0  0  0  0  0  0  0  0  0
    3.4202    7.9009   20.3866 C   0  0  0  0  0  0  0  0  0  0  0  0
   13.5280   10.3522   19.3586 C   0  0  0  0  0  0  0  0  0  0  0  0
    9.6923    5.6468   22.7891 C   0  0  0  0  0  0  0  0  0  0  0  0
   11.7756   10.2554   20.8841 N   0  0  0  0  0  0  0  0  0  0  0  0
    8.9876   11.9370   19.8757 O   0  0  0  0  0  0  0  0  0  0  0  0
    6.0167    8.4478   21.1089 C   0  0  0  0  0  0  0  0  0  0  0  0
   11.0002   10.8890   20.0262 C   0  0  0  0  0  0  0  0  0  0  0  0
    2.1721    7.7393   20.0315 O   0  0  0  0  0  0  0  0  0  0  0  0
    9.1107   10.3880   21.3769 N   0  0  0  0  0  0  0  0  0  0  0  0
    3.9102    9.2008   20.3124 C   0  0  0  0  0  0  0  0  0  0  0  0
   12.7292   10.9960   18.4597 C   0  0  0  0  0  0  0  0  0  0  0  0
    9.3798    6.6793   23.6625 C   0  0  0  0  0  0  0  0  0  0  0  0
   14.7425   10.0739   19.0802 O   0  0  0  0  0  0  0  0  0  0  0  0
    5.1894    9.4673   20.7118 C   0  0  0  0  0  0  0  0  0  0  0  0
    7.3773    8.8224   21.4870 C   0  0  0  0  0  0  0  0  0  0  0  0
    8.4391    6.6439   21.0235 C   0  0  0  0  0  0  0  0  0  0  0  0
    9.6494   11.1353   20.4167 C   0  0  0  0  0  0  0  0  0  0  0  0
    8.1431    7.6829   21.9046 C   0  0  0  0  0  0  0  0  0  0  0  0
    7.7796   10.1314   21.5115 N   0  0  0  0  0  0  0  0  0  0  0  0
    9.2768    5.6183   21.4437 C   0  0  0  0  0  0  0  0  0  0  0  0
    8.6315    7.7322   23.1768 C   0  0  0  0  0  0  0  0  0  0  0  0
   13.0537    9.9821   20.5781 C   0  0  0  0  0  0  0  0  0  0  0  0
   10.3850    4.6575   23.2386 O   0  0  0  0  0  0  0  0  0  0  0  0
    4.2069    6.8450   20.7994 C   0  0  0  0  0  0  0  0  0  0  0  0
    3.0726   10.1043   19.8522 O   0  0  0  0  0  0  0  0  0  0  0  0
    5.5057    7.1196   21.1155 C   0  0  0  0  0  0  0  0  0  0  0  0
    7.0367   11.0229   21.9948 O   0  0  0  0  0  0  0  0  0  0  0  0
  1  8  4  0
  1 12  4  0
  2  9  1  0
  2 11  4  0
  2 25  4  0
  3 12  4  0
  3 14  1  0
  3 23  4  0
  4 13  4  0
  4 21  4  0
  4 24  1  0
  5  8  4  0
  5 23  4  0
  6 18  2  0
  7 15  4  0
  7 16  1  0
  7 27  4  0
  8 18  1  0
 10 18  1  0
 10 20  1  0
 11 15  4  0
 11 26  1  0
 13 22  4  0
 16 19  1  0
 16 20  2  0
 17 19  4  0
 17 21  4  0
 19 22  4  0
 20 28  1  0
 25 27  4  0
M  END
$$$$

 Created by Python create_sdf_string function

 28 30  0  0  0  0  0  0  0  0999 V2000
   11.4592   11.2893   18.7941 C   0  0  0  0  0  0  0  0  0  0  0  0
    3.4202    7.9009   20.3866 C   0  0  0  0  0  0  0  0  0  0  0  0
   13.5280   10.3522   19.3586 C   0  0  0  0  0  0  0  0  0  0  0  0
    9.6923    5.6468   22.7891 C   0  0  0  0  0  0  0  0  0  0  0  0
   11.7756   10.2554   20.8841 N   0  0  0  0  0  0  0  0  0  0  0  0
    8.9876   11.9370   19.8757 O   0  0  0  0  0  0  0  0  0  0  0  0
    6.0167    8.4478   21.1089 C   0  0  0  0  0  0  0  0  0  0  0  0
   11.0002   10.8890   20.0262 C   0  0  0  0  0  0  0  0  0  0  0  0
    2.1721    7.7393   20.0315 O   0  0  0  0  0  0  0  0  0  0  0  0
    9.1107   10.3880   21.3769 N   0  0  0  0  0  0  0  0  0  0  0  0
    3.9102    9.2008   20.3124 C   0  0  0  0  0  0  0  0  0  0  0  0
   12.7292   10.9960   18.4597 C   0  0  0  0  0  0  0  0  0  0  0  0
    9.3798    6.6793   23.6625 C   0  0  0  0  0  0  0  0  0  0  0  0
   14.7425   10.0739   19.0802 O   0  0  0  0  0  0  0  0  0  0  0  0
    5.1894    9.4673   20.7118 C   0  0  0  0  0  0  0  0  0  0  0  0
    7.3773    8.8224   21.4870 C   0  0  0  0  0  0  0  0  0  0  0  0
    8.4391    6.6439   21.0235 C   0  0  0  0  0  0  0  0  0  0  0  0
    9.6494   11.1353   20.4167 C   0  0  0  0  0  0  0  0  0  0  0  0
    8.1431    7.6829   21.9046 C   0  0  0  0  0  0  0  0  0  0  0  0
    7.7796   10.1314   21.5115 N   0  0  0  0  0  0  0  0  0  0  0  0
    9.2768    5.6183   21.4437 C   0  0  0  0  0  0  0  0  0  0  0  0
    8.6315    7.7322   23.1768 C   0  0  0  0  0  0  0  0  0  0  0  0
   13.0537    9.9821   20.5781 C   0  0  0  0  0  0  0  0  0  0  0  0
   10.3850    4.6575   23.2386 O   0  0  0  0  0  0  0  0  0  0  0  0
    4.2069    6.8450   20.7994 C   0  0  0  0  0  0  0  0  0  0  0  0
    3.0726   10.1043   19.8522 O   0  0  0  0  0  0  0  0  0  0  0  0
    5.5057    7.1196   21.1155 C   0  0  0  0  0  0  0  0  0  0  0  0
    7.0367   11.0229   21.9948 O   0  0  0  0  0  0  0  0  0  0  0  0
  1  8  4  0
  1 12  4  0
  2  9  1  0
  2 11  4  0
  2 25  4  0
  3 12  4  0
  3 14  1  0
  3 23  4  0
  4 13  4  0
  4 21  4  0
  4 24  1  0
  5  8  4  0
  5 23  4  0
  6 18  2  0
  7 15  4  0
  7 16  1  0
  7 27  4  0
  8 18  1  0
 10 18  1  0
 10 20  1  0
 11 15  4  0
 11 26  1  0
 13 22  4  0
 16 19  1  0
 16 20  2  0
 17 19  4  0
 17 21  4  0
 19 22  4  0
 20 28  1  0
 25 27  4  0
M  END
$$$$

 Created by Python create_sdf_string function

 28 30  0  0  0  0  0  0  0  0999 V2000
   11.4592   11.2893   18.7941 C   0  0  0  0  0  0  0  0  0  0  0  0
    3.4202    7.9009   20.3866 C   0  0  0  0  0  0  0  0  0  0  0  0
   13.5280   10.3522   19.3586 C   0  0  0  0  0  0  0  0  0  0  0  0
    9.6923    5.6468   22.7891 C   0  0  0  0  0  0  0  0  0  0  0  0
   11.7756   10.2554   20.8841 N   0  0  0  0  0  0  0  0  0  0  0  0
    8.9876   11.9370   19.8757 O   0  0  0  0  0  0  0  0  0  0  0  0
    6.0167    8.4478   21.1089 C   0  0  0  0  0  0  0  0  0  0  0  0
   11.0002   10.8890   20.0262 C   0  0  0  0  0  0  0  0  0  0  0  0
    2.1721    7.7393   20.0315 O   0  0  0  0  0  0  0  0  0  0  0  0
    9.1107   10.3880   21.3769 N   0  0  0  0  0  0  0  0  0  0  0  0
    3.9102    9.2008   20.3124 C   0  0  0  0  0  0  0  0  0  0  0  0
   12.7292   10.9960   18.4597 C   0  0  0  0  0  0  0  0  0  0  0  0
    9.3798    6.6793   23.6625 C   0  0  0  0  0  0  0  0  0  0  0  0
   14.7425   10.0739   19.0802 O   0  0  0  0  0  0  0  0  0  0  0  0
    5.1894    9.4673   20.7118 C   0  0  0  0  0  0  0  0  0  0  0  0
    7.3773    8.8224   21.4870 C   0  0  0  0  0  0  0  0  0  0  0  0
    8.4391    6.6439   21.0235 C   0  0  0  0  0  0  0  0  0  0  0  0
    9.6494   11.1353   20.4167 C   0  0  0  0  0  0  0  0  0  0  0  0
    8.1431    7.6829   21.9046 C   0  0  0  0  0  0  0  0  0  0  0  0
    7.7796   10.1314   21.5115 N   0  0  0  0  0  0  0  0  0  0  0  0
    9.2768    5.6183   21.4437 C   0  0  0  0  0  0  0  0  0  0  0  0
    8.6315    7.7322   23.1768 C   0  0  0  0  0  0  0  0  0  0  0  0
   13.0537    9.9821   20.5781 C   0  0  0  0  0  0  0  0  0  0  0  0
   10.3850    4.6575   23.2386 O   0  0  0  0  0  0  0  0  0  0  0  0
    4.2069    6.8450   20.7994 C   0  0  0  0  0  0  0  0  0  0  0  0
    3.0726   10.1043   19.8522 O   0  0  0  0  0  0  0  0  0  0  0  0
    5.5057    7.1196   21.1155 C   0  0  0  0  0  0  0  0  0  0  0  0
    7.0367   11.0229   21.9948 O   0  0  0  0  0  0  0  0  0  0  0  0
  1  8  4  0
  1 12  4  0
  2  9  1  0
  2 11  4  0
  2 25  4  0
  3 12  4  0
  3 14  1  0
  3 23  4  0
  4 13  4  0
  4 21  4  0
  4 24  1  0
  5  8  4  0
  5 23  4  0
  6 18  2  0
  7 15  4  0
  7 16  1  0
  7 27  4  0
  8 18  1  0
 10 18  1  0
 10 20  1  0
 11 15  4  0
 11 26  1  0
 13 22  4  0
 16 19  1  0
 16 20  2  0
 17 19  4  0
 17 21  4  0
 19 22  4  0
 20 28  1  0
 25 27  4  0
M  END
$$$$

 Created by Python create_sdf_string function

 28 30  0  0  0  0  0  0  0  0999 V2000
   11.4592   11.2893   18.7941 C   0  0  0  0  0  0  0  0  0  0  0  0
    3.4202    7.9009   20.3866 C   0  0  0  0  0  0  0  0  0  0  0  0
   13.5280   10.3522   19.3586 C   0  0  0  0  0  0  0  0  0  0  0  0
    9.6923    5.6468   22.7891 C   0  0  0  0  0  0  0  0  0  0  0  0
   11.7756   10.2554   20.8841 N   0  0  0  0  0  0  0  0  0  0  0  0
    8.9876   11.9370   19.8757 O   0  0  0  0  0  0  0  0  0  0  0  0
    6.0167    8.4478   21.1089 C   0  0  0  0  0  0  0  0  0  0  0  0
   11.0002   10.8890   20.0262 C   0  0  0  0  0  0  0  0  0  0  0  0
    2.1721    7.7393   20.0315 O   0  0  0  0  0  0  0  0  0  0  0  0
    9.1107   10.3880   21.3769 N   0  0  0  0  0  0  0  0  0  0  0  0
    3.9102    9.2008   20.3124 C   0  0  0  0  0  0  0  0  0  0  0  0
   12.7292   10.9960   18.4597 C   0  0  0  0  0  0  0  0  0  0  0  0
    9.3798    6.6793   23.6625 C   0  0  0  0  0  0  0  0  0  0  0  0
   14.7425   10.0739   19.0802 O   0  0  0  0  0  0  0  0  0  0  0  0
    5.1894    9.4673   20.7118 C   0  0  0  0  0  0  0  0  0  0  0  0
    7.3773    8.8224   21.4870 C   0  0  0  0  0  0  0  0  0  0  0  0
    8.4391    6.6439   21.0235 C   0  0  0  0  0  0  0  0  0  0  0  0
    9.6494   11.1353   20.4167 C   0  0  0  0  0  0  0  0  0  0  0  0
    8.1431    7.6829   21.9046 C   0  0  0  0  0  0  0  0  0  0  0  0
    7.7796   10.1314   21.5115 N   0  0  0  0  0  0  0  0  0  0  0  0
    9.2768    5.6183   21.4437 C   0  0  0  0  0  0  0  0  0  0  0  0
    8.6315    7.7322   23.1768 C   0  0  0  0  0  0  0  0  0  0  0  0
   13.0537    9.9821   20.5781 C   0  0  0  0  0  0  0  0  0  0  0  0
   10.3850    4.6575   23.2386 O   0  0  0  0  0  0  0  0  0  0  0  0
    4.2069    6.8450   20.7994 C   0  0  0  0  0  0  0  0  0  0  0  0
    3.0726   10.1043   19.8522 O   0  0  0  0  0  0  0  0  0  0  0  0
    5.5057    7.1196   21.1155 C   0  0  0  0  0  0  0  0  0  0  0  0
    7.0367   11.0229   21.9948 O   0  0  0  0  0  0  0  0  0  0  0  0
  1  8  4  0
  1 12  4  0
  2  9  1  0
  2 11  4  0
  2 25  4  0
  3 12  4  0
  3 14  1  0
  3 23  4  0
  4 13  4  0
  4 21  4  0
  4 24  1  0
  5  8  4  0
  5 23  4  0
  6 18  2  0
  7 15  4  0
  7 16  1  0
  7 27  4  0
  8 18  1  0
 10 18  1  0
 10 20  1  0
 11 15  4  0
 11 26  1  0
 13 22  4  0
 16 19  1  0
 16 20  2  0
 17 19  4  0
 17 21  4  0
 19 22  4  0
 20 28  1  0
 25 27  4  0
M  END
$$$$

 Created by Python create_sdf_string function

 28 30  0  0  0  0  0  0  0  0999 V2000
   11.4592   11.2893   18.7941 C   0  0  0  0  0  0  0  0  0  0  0  0
    3.4202    7.9009   20.3866 C   0  0  0  0  0  0  0  0  0  0  0  0
   13.5280   10.3522   19.3586 C   0  0  0  0  0  0  0  0  0  0  0  0
    9.6923    5.6468   22.7891 C   0  0  0  0  0  0  0  0  0  0  0  0
   11.7756   10.2554   20.8841 N   0  0  0  0  0  0  0  0  0  0  0  0
    8.9876   11.9370   19.8757 O   0  0  0  0  0  0  0  0  0  0  0  0
    6.0167    8.4478   21.1089 C   0  0  0  0  0  0  0  0  0  0  0  0
   11.0002   10.8890   20.0262 C   0  0  0  0  0  0  0  0  0  0  0  0
    2.1721    7.7393   20.0315 O   0  0  0  0  0  0  0  0  0  0  0  0
    9.1107   10.3880   21.3769 N   0  0  0  0  0  0  0  0  0  0  0  0
    3.9102    9.2008   20.3124 C   0  0  0  0  0  0  0  0  0  0  0  0
   12.7292   10.9960   18.4597 C   0  0  0  0  0  0  0  0  0  0  0  0
    9.3798    6.6793   23.6625 C   0  0  0  0  0  0  0  0  0  0  0  0
   14.7425   10.0739   19.0802 O   0  0  0  0  0  0  0  0  0  0  0  0
    5.1894    9.4673   20.7118 C   0  0  0  0  0  0  0  0  0  0  0  0
    7.3773    8.8224   21.4870 C   0  0  0  0  0  0  0  0  0  0  0  0
    8.4391    6.6439   21.0235 C   0  0  0  0  0  0  0  0  0  0  0  0
    9.6494   11.1353   20.4167 C   0  0  0  0  0  0  0  0  0  0  0  0
    8.1431    7.6829   21.9046 C   0  0  0  0  0  0  0  0  0  0  0  0
    7.7796   10.1314   21.5115 N   0  0  0  0  0  0  0  0  0  0  0  0
    9.2768    5.6183   21.4437 C   0  0  0  0  0  0  0  0  0  0  0  0
    8.6315    7.7322   23.1768 C   0  0  0  0  0  0  0  0  0  0  0  0
   13.0537    9.9821   20.5781 C   0  0  0  0  0  0  0  0  0  0  0  0
   10.3850    4.6575   23.2386 O   0  0  0  0  0  0  0  0  0  0  0  0
    4.2069    6.8450   20.7994 C   0  0  0  0  0  0  0  0  0  0  0  0
    3.0726   10.1043   19.8522 O   0  0  0  0  0  0  0  0  0  0  0  0
    5.5057    7.1196   21.1155 C   0  0  0  0  0  0  0  0  0  0  0  0
    7.0367   11.0229   21.9948 O   0  0  0  0  0  0  0  0  0  0  0  0
  1  8  4  0
  1 12  4  0
  2  9  1  0
  2 11  4  0
  2 25  4  0
  3 12  4  0
  3 14  1  0
  3 23  4  0
  4 13  4  0
  4 21  4  0
  4 24  1  0
  5  8  4  0
  5 23  4  0
  6 18  2  0
  7 15  4  0
  7 16  1  0
  7 27  4  0
  8 18  1  0
 10 18  1  0
 10 20  1  0
 11 15  4  0
 11 26  1  0
 13 22  4  0
 16 19  1  0
 16 20  2  0
 17 19  4  0
 17 21  4  0
 19 22  4  0
 20 28  1  0
 25 27  4  0
M  END
$$$$

 Created by Python create_sdf_string function

 28 30  0  0  0  0  0  0  0  0999 V2000
   11.4592   11.2893   18.7941 C   0  0  0  0  0  0  0  0  0  0  0  0
    3.4202    7.9009   20.3866 C   0  0  0  0  0  0  0  0  0  0  0  0
   13.5280   10.3522   19.3586 C   0  0  0  0  0  0  0  0  0  0  0  0
    9.6923    5.6468   22.7891 C   0  0  0  0  0  0  0  0  0  0  0  0
   11.7756   10.2554   20.8841 N   0  0  0  0  0  0  0  0  0  0  0  0
    8.9876   11.9370   19.8757 O   0  0  0  0  0  0  0  0  0  0  0  0
    6.0167    8.4478   21.1089 C   0  0  0  0  0  0  0  0  0  0  0  0
   11.0002   10.8890   20.0262 C   0  0  0  0  0  0  0  0  0  0  0  0
    2.1721    7.7393   20.0315 O   0  0  0  0  0  0  0  0  0  0  0  0
    9.1107   10.3880   21.3769 N   0  0  0  0  0  0  0  0  0  0  0  0
    3.9102    9.2008   20.3124 C   0  0  0  0  0  0  0  0  0  0  0  0
   12.7292   10.9960   18.4597 C   0  0  0  0  0  0  0  0  0  0  0  0
    9.3798    6.6793   23.6625 C   0  0  0  0  0  0  0  0  0  0  0  0
   14.7425   10.0739   19.0802 O   0  0  0  0  0  0  0  0  0  0  0  0
    5.1894    9.4673   20.7118 C   0  0  0  0  0  0  0  0  0  0  0  0
    7.3773    8.8224   21.4870 C   0  0  0  0  0  0  0  0  0  0  0  0
    8.4391    6.6439   21.0235 C   0  0  0  0  0  0  0  0  0  0  0  0
    9.6494   11.1353   20.4167 C   0  0  0  0  0  0  0  0  0  0  0  0
    8.1431    7.6829   21.9046 C   0  0  0  0  0  0  0  0  0  0  0  0
    7.7796   10.1314   21.5115 N   0  0  0  0  0  0  0  0  0  0  0  0
    9.2768    5.6183   21.4437 C   0  0  0  0  0  0  0  0  0  0  0  0
    8.6315    7.7322   23.1768 C   0  0  0  0  0  0  0  0  0  0  0  0
   13.0537    9.9821   20.5781 C   0  0  0  0  0  0  0  0  0  0  0  0
   10.3850    4.6575   23.2386 O   0  0  0  0  0  0  0  0  0  0  0  0
    4.2069    6.8450   20.7994 C   0  0  0  0  0  0  0  0  0  0  0  0
    3.0726   10.1043   19.8522 O   0  0  0  0  0  0  0  0  0  0  0  0
    5.5057    7.1196   21.1155 C   0  0  0  0  0  0  0  0  0  0  0  0
    7.0367   11.0229   21.9948 O   0  0  0  0  0  0  0  0  0  0  0  0
  1  8  4  0
  1 12  4  0
  2  9  1  0
  2 11  4  0
  2 25  4  0
  3 12  4  0
  3 14  1  0
  3 23  4  0
  4 13  4  0
  4 21  4  0
  4 24  1  0
  5  8  4  0
  5 23  4  0
  6 18  2  0
  7 15  4  0
  7 16  1  0
  7 27  4  0
  8 18  1  0
 10 18  1  0
 10 20  1  0
 11 15  4  0
 11 26  1  0
 13 22  4  0
 16 19  1  0
 16 20  2  0
 17 19  4  0
 17 21  4  0
 19 22  4  0
 20 28  1  0
 25 27  4  0
M  END
$$$$

 Created by Python create_sdf_string function

 28 30  0  0  0  0  0  0  0  0999 V2000
   11.4592   11.2893   18.7941 C   0  0  0  0  0  0  0  0  0  0  0  0
    3.4202    7.9009   20.3866 C   0  0  0  0  0  0  0  0  0  0  0  0
   13.5280   10.3522   19.3586 C   0  0  0  0  0  0  0  0  0  0  0  0
    9.6923    5.6468   22.7891 C   0  0  0  0  0  0  0  0  0  0  0  0
   11.7756   10.2554   20.8841 N   0  0  0  0  0  0  0  0  0  0  0  0
    8.9876   11.9370   19.8757 O   0  0  0  0  0  0  0  0  0  0  0  0
    6.0167    8.4478   21.1089 C   0  0  0  0  0  0  0  0  0  0  0  0
   11.0002   10.8890   20.0262 C   0  0  0  0  0  0  0  0  0  0  0  0
    2.1721    7.7393   20.0315 O   0  0  0  0  0  0  0  0  0  0  0  0
    9.1107   10.3880   21.3769 N   0  0  0  0  0  0  0  0  0  0  0  0
    3.9102    9.2008   20.3124 C   0  0  0  0  0  0  0  0  0  0  0  0
   12.7292   10.9960   18.4597 C   0  0  0  0  0  0  0  0  0  0  0  0
    9.3798    6.6793   23.6625 C   0  0  0  0  0  0  0  0  0  0  0  0
   14.7425   10.0739   19.0802 O   0  0  0  0  0  0  0  0  0  0  0  0
    5.1894    9.4673   20.7118 C   0  0  0  0  0  0  0  0  0  0  0  0
    7.3773    8.8224   21.4870 C   0  0  0  0  0  0  0  0  0  0  0  0
    8.4391    6.6439   21.0235 C   0  0  0  0  0  0  0  0  0  0  0  0
    9.6494   11.1353   20.4167 C   0  0  0  0  0  0  0  0  0  0  0  0
    8.1431    7.6829   21.9046 C   0  0  0  0  0  0  0  0  0  0  0  0
    7.7796   10.1314   21.5115 N   0  0  0  0  0  0  0  0  0  0  0  0
    9.2768    5.6183   21.4437 C   0  0  0  0  0  0  0  0  0  0  0  0
    8.6315    7.7322   23.1768 C   0  0  0  0  0  0  0  0  0  0  0  0
   13.0537    9.9821   20.5781 C   0  0  0  0  0  0  0  0  0  0  0  0
   10.3850    4.6575   23.2386 O   0  0  0  0  0  0  0  0  0  0  0  0
    4.2069    6.8450   20.7994 C   0  0  0  0  0  0  0  0  0  0  0  0
    3.0726   10.1043   19.8522 O   0  0  0  0  0  0  0  0  0  0  0  0
    5.5057    7.1196   21.1155 C   0  0  0  0  0  0  0  0  0  0  0  0
    7.0367   11.0229   21.9948 O   0  0  0  0  0  0  0  0  0  0  0  0
  1  8  4  0
  1 12  4  0
  2  9  1  0
  2 11  4  0
  2 25  4  0
  3 12  4  0
  3 14  1  0
  3 23  4  0
  4 13  4  0
  4 21  4  0
  4 24  1  0
  5  8  4  0
  5 23  4  0
  6 18  2  0
  7 15  4  0
  7 16  1  0
  7 27  4  0
  8 18  1  0
 10 18  1  0
 10 20  1  0
 11 15  4  0
 11 26  1  0
 13 22  4  0
 16 19  1  0
 16 20  2  0
 17 19  4  0
 17 21  4  0
 19 22  4  0
 20 28  1  0
 25 27  4  0
M  END
$$$$

 Created by Python create_sdf_string function

 28 30  0  0  0  0  0  0  0  0999 V2000
   11.4592   11.2893   18.7941 C   0  0  0  0  0  0  0  0  0  0  0  0
    3.4202    7.9009   20.3866 C   0  0  0  0  0  0  0  0  0  0  0  0
   13.5280   10.3522   19.3586 C   0  0  0  0  0  0  0  0  0  0  0  0
    9.6923    5.6468   22.7891 C   0  0  0  0  0  0  0  0  0  0  0  0
   11.7756   10.2554   20.8841 N   0  0  0  0  0  0  0  0  0  0  0  0
    8.9876   11.9370   19.8757 O   0  0  0  0  0  0  0  0  0  0  0  0
    6.0167    8.4478   21.1089 C   0  0  0  0  0  0  0  0  0  0  0  0
   11.0002   10.8890   20.0262 C   0  0  0  0  0  0  0  0  0  0  0  0
    2.1721    7.7393   20.0315 O   0  0  0  0  0  0  0  0  0  0  0  0
    9.1107   10.3880   21.3769 N   0  0  0  0  0  0  0  0  0  0  0  0
    3.9102    9.2008   20.3124 C   0  0  0  0  0  0  0  0  0  0  0  0
   12.7292   10.9960   18.4597 C   0  0  0  0  0  0  0  0  0  0  0  0
    9.3798    6.6793   23.6625 C   0  0  0  0  0  0  0  0  0  0  0  0
   14.7425   10.0739   19.0802 O   0  0  0  0  0  0  0  0  0  0  0  0
    5.1894    9.4673   20.7118 C   0  0  0  0  0  0  0  0  0  0  0  0
    7.3773    8.8224   21.4870 C   0  0  0  0  0  0  0  0  0  0  0  0
    8.4391    6.6439   21.0235 C   0  0  0  0  0  0  0  0  0  0  0  0
    9.6494   11.1353   20.4167 C   0  0  0  0  0  0  0  0  0  0  0  0
    8.1431    7.6829   21.9046 C   0  0  0  0  0  0  0  0  0  0  0  0
    7.7796   10.1314   21.5115 N   0  0  0  0  0  0  0  0  0  0  0  0
    9.2768    5.6183   21.4437 C   0  0  0  0  0  0  0  0  0  0  0  0
    8.6315    7.7322   23.1768 C   0  0  0  0  0  0  0  0  0  0  0  0
   13.0537    9.9821   20.5781 C   0  0  0  0  0  0  0  0  0  0  0  0
   10.3850    4.6575   23.2386 O   0  0  0  0  0  0  0  0  0  0  0  0
    4.2069    6.8450   20.7994 C   0  0  0  0  0  0  0  0  0  0  0  0
    3.0726   10.1043   19.8522 O   0  0  0  0  0  0  0  0  0  0  0  0
    5.5057    7.1196   21.1155 C   0  0  0  0  0  0  0  0  0  0  0  0
    7.0367   11.0229   21.9948 O   0  0  0  0  0  0  0  0  0  0  0  0
  1  8  4  0
  1 12  4  0
  2  9  1  0
  2 11  4  0
  2 25  4  0
  3 12  4  0
  3 14  1  0
  3 23  4  0
  4 13  4  0
  4 21  4  0
  4 24  1  0
  5  8  4  0
  5 23  4  0
  6 18  2  0
  7 15  4  0
  7 16  1  0
  7 27  4  0
  8 18  1  0
 10 18  1  0
 10 20  1  0
 11 15  4  0
 11 26  1  0
 13 22  4  0
 16 19  1  0
 16 20  2  0
 17 19  4  0
 17 21  4  0
 19 22  4  0
 20 28  1  0
 25 27  4  0
M  END
$$$$

 Created by Python create_sdf_string function

 28 30  0  0  0  0  0  0  0  0999 V2000
   11.4592   11.2893   18.7941 C   0  0  0  0  0  0  0  0  0  0  0  0
    3.4202    7.9009   20.3866 C   0  0  0  0  0  0  0  0  0  0  0  0
   13.5280   10.3522   19.3586 C   0  0  0  0  0  0  0  0  0  0  0  0
    9.6923    5.6468   22.7891 C   0  0  0  0  0  0  0  0  0  0  0  0
   11.7756   10.2554   20.8841 N   0  0  0  0  0  0  0  0  0  0  0  0
    8.9876   11.9370   19.8757 O   0  0  0  0  0  0  0  0  0  0  0  0
    6.0167    8.4478   21.1089 C   0  0  0  0  0  0  0  0  0  0  0  0
   11.0002   10.8890   20.0262 C   0  0  0  0  0  0  0  0  0  0  0  0
    2.1721    7.7393   20.0315 O   0  0  0  0  0  0  0  0  0  0  0  0
    9.1107   10.3880   21.3769 N   0  0  0  0  0  0  0  0  0  0  0  0
    3.9102    9.2008   20.3124 C   0  0  0  0  0  0  0  0  0  0  0  0
   12.7292   10.9960   18.4597 C   0  0  0  0  0  0  0  0  0  0  0  0
    9.3798    6.6793   23.6625 C   0  0  0  0  0  0  0  0  0  0  0  0
   14.7425   10.0739   19.0802 O   0  0  0  0  0  0  0  0  0  0  0  0
    5.1894    9.4673   20.7118 C   0  0  0  0  0  0  0  0  0  0  0  0
    7.3773    8.8224   21.4870 C   0  0  0  0  0  0  0  0  0  0  0  0
    8.4391    6.6439   21.0235 C   0  0  0  0  0  0  0  0  0  0  0  0
    9.6494   11.1353   20.4167 C   0  0  0  0  0  0  0  0  0  0  0  0
    8.1431    7.6829   21.9046 C   0  0  0  0  0  0  0  0  0  0  0  0
    7.7796   10.1314   21.5115 N   0  0  0  0  0  0  0  0  0  0  0  0
    9.2768    5.6183   21.4437 C   0  0  0  0  0  0  0  0  0  0  0  0
    8.6315    7.7322   23.1768 C   0  0  0  0  0  0  0  0  0  0  0  0
   13.0537    9.9821   20.5781 C   0  0  0  0  0  0  0  0  0  0  0  0
   10.3850    4.6575   23.2386 O   0  0  0  0  0  0  0  0  0  0  0  0
    4.2069    6.8450   20.7994 C   0  0  0  0  0  0  0  0  0  0  0  0
    3.0726   10.1043   19.8522 O   0  0  0  0  0  0  0  0  0  0  0  0
    5.5057    7.1196   21.1155 C   0  0  0  0  0  0  0  0  0  0  0  0
    7.0367   11.0229   21.9948 O   0  0  0  0  0  0  0  0  0  0  0  0
  1  8  4  0
  1 12  4  0
  2  9  1  0
  2 11  4  0
  2 25  4  0
  3 12  4  0
  3 14  1  0
  3 23  4  0
  4 13  4  0
  4 21  4  0
  4 24  1  0
  5  8  4  0
  5 23  4  0
  6 18  2  0
  7 15  4  0
  7 16  1  0
  7 27  4  0
  8 18  1  0
 10 18  1  0
 10 20  1  0
 11 15  4  0
 11 26  1  0
 13 22  4  0
 16 19  1  0
 16 20  2  0
 17 19  4  0
 17 21  4  0
 19 22  4  0
 20 28  1  0
 25 27  4  0
M  END
$$$$

 Created by Python create_sdf_string function

 28 30  0  0  0  0  0  0  0  0999 V2000
   11.4592   11.2893   18.7941 C   0  0  0  0  0  0  0  0  0  0  0  0
    3.4202    7.9009   20.3866 C   0  0  0  0  0  0  0  0  0  0  0  0
   13.5280   10.3522   19.3586 C   0  0  0  0  0  0  0  0  0  0  0  0
    9.6923    5.6468   22.7891 C   0  0  0  0  0  0  0  0  0  0  0  0
   11.7756   10.2554   20.8841 N   0  0  0  0  0  0  0  0  0  0  0  0
    8.9876   11.9370   19.8757 O   0  0  0  0  0  0  0  0  0  0  0  0
    6.0167    8.4478   21.1089 C   0  0  0  0  0  0  0  0  0  0  0  0
   11.0002   10.8890   20.0262 C   0  0  0  0  0  0  0  0  0  0  0  0
    2.1721    7.7393   20.0315 O   0  0  0  0  0  0  0  0  0  0  0  0
    9.1107   10.3880   21.3769 N   0  0  0  0  0  0  0  0  0  0  0  0
    3.9102    9.2008   20.3124 C   0  0  0  0  0  0  0  0  0  0  0  0
   12.7292   10.9960   18.4597 C   0  0  0  0  0  0  0  0  0  0  0  0
    9.3798    6.6793   23.6625 C   0  0  0  0  0  0  0  0  0  0  0  0
   14.7425   10.0739   19.0802 O   0  0  0  0  0  0  0  0  0  0  0  0
    5.1894    9.4673   20.7118 C   0  0  0  0  0  0  0  0  0  0  0  0
    7.3773    8.8224   21.4870 C   0  0  0  0  0  0  0  0  0  0  0  0
    8.4391    6.6439   21.0235 C   0  0  0  0  0  0  0  0  0  0  0  0
    9.6494   11.1353   20.4167 C   0  0  0  0  0  0  0  0  0  0  0  0
    8.1431    7.6829   21.9046 C   0  0  0  0  0  0  0  0  0  0  0  0
    7.7796   10.1314   21.5115 N   0  0  0  0  0  0  0  0  0  0  0  0
    9.2768    5.6183   21.4437 C   0  0  0  0  0  0  0  0  0  0  0  0
    8.6315    7.7322   23.1768 C   0  0  0  0  0  0  0  0  0  0  0  0
   13.0537    9.9821   20.5781 C   0  0  0  0  0  0  0  0  0  0  0  0
   10.3850    4.6575   23.2386 O   0  0  0  0  0  0  0  0  0  0  0  0
    4.2069    6.8450   20.7994 C   0  0  0  0  0  0  0  0  0  0  0  0
    3.0726   10.1043   19.8522 O   0  0  0  0  0  0  0  0  0  0  0  0
    5.5057    7.1196   21.1155 C   0  0  0  0  0  0  0  0  0  0  0  0
    7.0367   11.0229   21.9948 O   0  0  0  0  0  0  0  0  0  0  0  0
  1  8  4  0
  1 12  4  0
  2  9  1  0
  2 11  4  0
  2 25  4  0
  3 12  4  0
  3 14  1  0
  3 23  4  0
  4 13  4  0
  4 21  4  0
  4 24  1  0
  5  8  4  0
  5 23  4  0
  6 18  2  0
  7 15  4  0
  7 16  1  0
  7 27  4  0
  8 18  1  0
 10 18  1  0
 10 20  1  0
 11 15  4  0
 11 26  1  0
 13 22  4  0
 16 19  1  0
 16 20  2  0
 17 19  4  0
 17 21  4  0
 19 22  4  0
 20 28  1  0
 25 27  4  0
M  END
$$$$

 Created by Python create_sdf_string function

 28 30  0  0  0  0  0  0  0  0999 V2000
   11.4592   11.2893   18.7941 C   0  0  0  0  0  0  0  0  0  0  0  0
    3.4202    7.9009   20.3866 C   0  0  0  0  0  0  0  0  0  0  0  0
   13.5280   10.3522   19.3586 C   0  0  0  0  0  0  0  0  0  0  0  0
    9.6923    5.6468   22.7891 C   0  0  0  0  0  0  0  0  0  0  0  0
   11.7756   10.2554   20.8841 N   0  0  0  0  0  0  0  0  0  0  0  0
    8.9876   11.9370   19.8757 O   0  0  0  0  0  0  0  0  0  0  0  0
    6.0167    8.4478   21.1089 C   0  0  0  0  0  0  0  0  0  0  0  0
   11.0002   10.8890   20.0262 C   0  0  0  0  0  0  0  0  0  0  0  0
    2.1721    7.7393   20.0315 O   0  0  0  0  0  0  0  0  0  0  0  0
    9.1107   10.3880   21.3769 N   0  0  0  0  0  0  0  0  0  0  0  0
    3.9102    9.2008   20.3124 C   0  0  0  0  0  0  0  0  0  0  0  0
   12.7292   10.9960   18.4597 C   0  0  0  0  0  0  0  0  0  0  0  0
    9.3798    6.6793   23.6625 C   0  0  0  0  0  0  0  0  0  0  0  0
   14.7425   10.0739   19.0802 O   0  0  0  0  0  0  0  0  0  0  0  0
    5.1894    9.4673   20.7118 C   0  0  0  0  0  0  0  0  0  0  0  0
    7.3773    8.8224   21.4870 C   0  0  0  0  0  0  0  0  0  0  0  0
    8.4391    6.6439   21.0235 C   0  0  0  0  0  0  0  0  0  0  0  0
    9.6494   11.1353   20.4167 C   0  0  0  0  0  0  0  0  0  0  0  0
    8.1431    7.6829   21.9046 C   0  0  0  0  0  0  0  0  0  0  0  0
    7.7796   10.1314   21.5115 N   0  0  0  0  0  0  0  0  0  0  0  0
    9.2768    5.6183   21.4437 C   0  0  0  0  0  0  0  0  0  0  0  0
    8.6315    7.7322   23.1768 C   0  0  0  0  0  0  0  0  0  0  0  0
   13.0537    9.9821   20.5781 C   0  0  0  0  0  0  0  0  0  0  0  0
   10.3850    4.6575   23.2386 O   0  0  0  0  0  0  0  0  0  0  0  0
    4.2069    6.8450   20.7994 C   0  0  0  0  0  0  0  0  0  0  0  0
    3.0726   10.1043   19.8522 O   0  0  0  0  0  0  0  0  0  0  0  0
    5.5057    7.1196   21.1155 C   0  0  0  0  0  0  0  0  0  0  0  0
    7.0367   11.0229   21.9948 O   0  0  0  0  0  0  0  0  0  0  0  0
  1  8  4  0
  1 12  4  0
  2  9  1  0
  2 11  4  0
  2 25  4  0
  3 12  4  0
  3 14  1  0
  3 23  4  0
  4 13  4  0
  4 21  4  0
  4 24  1  0
  5  8  4  0
  5 23  4  0
  6 18  2  0
  7 15  4  0
  7 16  1  0
  7 27  4  0
  8 18  1  0
 10 18  1  0
 10 20  1  0
 11 15  4  0
 11 26  1  0
 13 22  4  0
 16 19  1  0
 16 20  2  0
 17 19  4  0
 17 21  4  0
 19 22  4  0
 20 28  1  0
 25 27  4  0
M  END
$$$$

 Created by Python create_sdf_string function

 28 30  0  0  0  0  0  0  0  0999 V2000
   11.4592   11.2893   18.7941 C   0  0  0  0  0  0  0  0  0  0  0  0
    3.4202    7.9009   20.3866 C   0  0  0  0  0  0  0  0  0  0  0  0
   13.5280   10.3522   19.3586 C   0  0  0  0  0  0  0  0  0  0  0  0
    9.6923    5.6468   22.7891 C   0  0  0  0  0  0  0  0  0  0  0  0
   11.7756   10.2554   20.8841 N   0  0  0  0  0  0  0  0  0  0  0  0
    8.9876   11.9370   19.8757 O   0  0  0  0  0  0  0  0  0  0  0  0
    6.0167    8.4478   21.1089 C   0  0  0  0  0  0  0  0  0  0  0  0
   11.0002   10.8890   20.0262 C   0  0  0  0  0  0  0  0  0  0  0  0
    2.1721    7.7393   20.0315 O   0  0  0  0  0  0  0  0  0  0  0  0
    9.1107   10.3880   21.3769 N   0  0  0  0  0  0  0  0  0  0  0  0
    3.9102    9.2008   20.3124 C   0  0  0  0  0  0  0  0  0  0  0  0
   12.7292   10.9960   18.4597 C   0  0  0  0  0  0  0  0  0  0  0  0
    9.3798    6.6793   23.6625 C   0  0  0  0  0  0  0  0  0  0  0  0
   14.7425   10.0739   19.0802 O   0  0  0  0  0  0  0  0  0  0  0  0
    5.1894    9.4673   20.7118 C   0  0  0  0  0  0  0  0  0  0  0  0
    7.3773    8.8224   21.4870 C   0  0  0  0  0  0  0  0  0  0  0  0
    8.4391    6.6439   21.0235 C   0  0  0  0  0  0  0  0  0  0  0  0
    9.6494   11.1353   20.4167 C   0  0  0  0  0  0  0  0  0  0  0  0
    8.1431    7.6829   21.9046 C   0  0  0  0  0  0  0  0  0  0  0  0
    7.7796   10.1314   21.5115 N   0  0  0  0  0  0  0  0  0  0  0  0
    9.2768    5.6183   21.4437 C   0  0  0  0  0  0  0  0  0  0  0  0
    8.6315    7.7322   23.1768 C   0  0  0  0  0  0  0  0  0  0  0  0
   13.0537    9.9821   20.5781 C   0  0  0  0  0  0  0  0  0  0  0  0
   10.3850    4.6575   23.2386 O   0  0  0  0  0  0  0  0  0  0  0  0
    4.2069    6.8450   20.7994 C   0  0  0  0  0  0  0  0  0  0  0  0
    3.0726   10.1043   19.8522 O   0  0  0  0  0  0  0  0  0  0  0  0
    5.5057    7.1196   21.1155 C   0  0  0  0  0  0  0  0  0  0  0  0
    7.0367   11.0229   21.9948 O   0  0  0  0  0  0  0  0  0  0  0  0
  1  8  4  0
  1 12  4  0
  2  9  1  0
  2 11  4  0
  2 25  4  0
  3 12  4  0
  3 14  1  0
  3 23  4  0
  4 13  4  0
  4 21  4  0
  4 24  1  0
  5  8  4  0
  5 23  4  0
  6 18  2  0
  7 15  4  0
  7 16  1  0
  7 27  4  0
  8 18  1  0
 10 18  1  0
 10 20  1  0
 11 15  4  0
 11 26  1  0
 13 22  4  0
 16 19  1  0
 16 20  2  0
 17 19  4  0
 17 21  4  0
 19 22  4  0
 20 28  1  0
 25 27  4  0
M  END
$$$$

 Created by Python create_sdf_string function

 28 30  0  0  0  0  0  0  0  0999 V2000
   11.4592   11.2893   18.7941 C   0  0  0  0  0  0  0  0  0  0  0  0
    3.4202    7.9009   20.3866 C   0  0  0  0  0  0  0  0  0  0  0  0
   13.5280   10.3522   19.3586 C   0  0  0  0  0  0  0  0  0  0  0  0
    9.6923    5.6468   22.7891 C   0  0  0  0  0  0  0  0  0  0  0  0
   11.7756   10.2554   20.8841 N   0  0  0  0  0  0  0  0  0  0  0  0
    8.9876   11.9370   19.8757 O   0  0  0  0  0  0  0  0  0  0  0  0
    6.0167    8.4478   21.1089 C   0  0  0  0  0  0  0  0  0  0  0  0
   11.0002   10.8890   20.0262 C   0  0  0  0  0  0  0  0  0  0  0  0
    2.1721    7.7393   20.0315 O   0  0  0  0  0  0  0  0  0  0  0  0
    9.1107   10.3880   21.3769 N   0  0  0  0  0  0  0  0  0  0  0  0
    3.9102    9.2008   20.3124 C   0  0  0  0  0  0  0  0  0  0  0  0
   12.7292   10.9960   18.4597 C   0  0  0  0  0  0  0  0  0  0  0  0
    9.3798    6.6793   23.6625 C   0  0  0  0  0  0  0  0  0  0  0  0
   14.7425   10.0739   19.0802 O   0  0  0  0  0  0  0  0  0  0  0  0
    5.1894    9.4673   20.7118 C   0  0  0  0  0  0  0  0  0  0  0  0
    7.3773    8.8224   21.4870 C   0  0  0  0  0  0  0  0  0  0  0  0
    8.4391    6.6439   21.0235 C   0  0  0  0  0  0  0  0  0  0  0  0
    9.6494   11.1353   20.4167 C   0  0  0  0  0  0  0  0  0  0  0  0
    8.1431    7.6829   21.9046 C   0  0  0  0  0  0  0  0  0  0  0  0
    7.7796   10.1314   21.5115 N   0  0  0  0  0  0  0  0  0  0  0  0
    9.2768    5.6183   21.4437 C   0  0  0  0  0  0  0  0  0  0  0  0
    8.6315    7.7322   23.1768 C   0  0  0  0  0  0  0  0  0  0  0  0
   13.0537    9.9821   20.5781 C   0  0  0  0  0  0  0  0  0  0  0  0
   10.3850    4.6575   23.2386 O   0  0  0  0  0  0  0  0  0  0  0  0
    4.2069    6.8450   20.7994 C   0  0  0  0  0  0  0  0  0  0  0  0
    3.0726   10.1043   19.8522 O   0  0  0  0  0  0  0  0  0  0  0  0
    5.5057    7.1196   21.1155 C   0  0  0  0  0  0  0  0  0  0  0  0
    7.0367   11.0229   21.9948 O   0  0  0  0  0  0  0  0  0  0  0  0
  1  8  4  0
  1 12  4  0
  2  9  1  0
  2 11  4  0
  2 25  4  0
  3 12  4  0
  3 14  1  0
  3 23  4  0
  4 13  4  0
  4 21  4  0
  4 24  1  0
  5  8  4  0
  5 23  4  0
  6 18  2  0
  7 15  4  0
  7 16  1  0
  7 27  4  0
  8 18  1  0
 10 18  1  0
 10 20  1  0
 11 15  4  0
 11 26  1  0
 13 22  4  0
 16 19  1  0
 16 20  2  0
 17 19  4  0
 17 21  4  0
 19 22  4  0
 20 28  1  0
 25 27  4  0
M  END
$$$$

 Created by Python create_sdf_string function

 28 30  0  0  0  0  0  0  0  0999 V2000
   11.4592   11.2893   18.7941 C   0  0  0  0  0  0  0  0  0  0  0  0
    3.4202    7.9009   20.3866 C   0  0  0  0  0  0  0  0  0  0  0  0
   13.5280   10.3522   19.3586 C   0  0  0  0  0  0  0  0  0  0  0  0
    9.6923    5.6468   22.7891 C   0  0  0  0  0  0  0  0  0  0  0  0
   11.7756   10.2554   20.8841 N   0  0  0  0  0  0  0  0  0  0  0  0
    8.9876   11.9370   19.8757 O   0  0  0  0  0  0  0  0  0  0  0  0
    6.0167    8.4478   21.1089 C   0  0  0  0  0  0  0  0  0  0  0  0
   11.0002   10.8890   20.0262 C   0  0  0  0  0  0  0  0  0  0  0  0
    2.1721    7.7393   20.0315 O   0  0  0  0  0  0  0  0  0  0  0  0
    9.1107   10.3880   21.3769 N   0  0  0  0  0  0  0  0  0  0  0  0
    3.9102    9.2008   20.3124 C   0  0  0  0  0  0  0  0  0  0  0  0
   12.7292   10.9960   18.4597 C   0  0  0  0  0  0  0  0  0  0  0  0
    9.3798    6.6793   23.6625 C   0  0  0  0  0  0  0  0  0  0  0  0
   14.7425   10.0739   19.0802 O   0  0  0  0  0  0  0  0  0  0  0  0
    5.1894    9.4673   20.7118 C   0  0  0  0  0  0  0  0  0  0  0  0
    7.3773    8.8224   21.4870 C   0  0  0  0  0  0  0  0  0  0  0  0
    8.4391    6.6439   21.0235 C   0  0  0  0  0  0  0  0  0  0  0  0
    9.6494   11.1353   20.4167 C   0  0  0  0  0  0  0  0  0  0  0  0
    8.1431    7.6829   21.9046 C   0  0  0  0  0  0  0  0  0  0  0  0
    7.7796   10.1314   21.5115 N   0  0  0  0  0  0  0  0  0  0  0  0
    9.2768    5.6183   21.4437 C   0  0  0  0  0  0  0  0  0  0  0  0
    8.6315    7.7322   23.1768 C   0  0  0  0  0  0  0  0  0  0  0  0
   13.0537    9.9821   20.5781 C   0  0  0  0  0  0  0  0  0  0  0  0
   10.3850    4.6575   23.2386 O   0  0  0  0  0  0  0  0  0  0  0  0
    4.2069    6.8450   20.7994 C   0  0  0  0  0  0  0  0  0  0  0  0
    3.0726   10.1043   19.8522 O   0  0  0  0  0  0  0  0  0  0  0  0
    5.5057    7.1196   21.1155 C   0  0  0  0  0  0  0  0  0  0  0  0
    7.0367   11.0229   21.9948 O   0  0  0  0  0  0  0  0  0  0  0  0
  1  8  4  0
  1 12  4  0
  2  9  1  0
  2 11  4  0
  2 25  4  0
  3 12  4  0
  3 14  1  0
  3 23  4  0
  4 13  4  0
  4 21  4  0
  4 24  1  0
  5  8  4  0
  5 23  4  0
  6 18  2  0
  7 15  4  0
  7 16  1  0
  7 27  4  0
  8 18  1  0
 10 18  1  0
 10 20  1  0
 11 15  4  0
 11 26  1  0
 13 22  4  0
 16 19  1  0
 16 20  2  0
 17 19  4  0
 17 21  4  0
 19 22  4  0
 20 28  1  0
 25 27  4  0
M  END
$$$$

 Created by Python create_sdf_string function

 28 30  0  0  0  0  0  0  0  0999 V2000
   11.4592   11.2893   18.7941 C   0  0  0  0  0  0  0  0  0  0  0  0
    3.4202    7.9009   20.3866 C   0  0  0  0  0  0  0  0  0  0  0  0
   13.5280   10.3522   19.3586 C   0  0  0  0  0  0  0  0  0  0  0  0
    9.6923    5.6468   22.7891 C   0  0  0  0  0  0  0  0  0  0  0  0
   11.7756   10.2554   20.8841 N   0  0  0  0  0  0  0  0  0  0  0  0
    8.9876   11.9370   19.8757 O   0  0  0  0  0  0  0  0  0  0  0  0
    6.0167    8.4478   21.1089 C   0  0  0  0  0  0  0  0  0  0  0  0
   11.0002   10.8890   20.0262 C   0  0  0  0  0  0  0  0  0  0  0  0
    2.1721    7.7393   20.0315 O   0  0  0  0  0  0  0  0  0  0  0  0
    9.1107   10.3880   21.3769 N   0  0  0  0  0  0  0  0  0  0  0  0
    3.9102    9.2008   20.3124 C   0  0  0  0  0  0  0  0  0  0  0  0
   12.7292   10.9960   18.4597 C   0  0  0  0  0  0  0  0  0  0  0  0
    9.3798    6.6793   23.6625 C   0  0  0  0  0  0  0  0  0  0  0  0
   14.7425   10.0739   19.0802 O   0  0  0  0  0  0  0  0  0  0  0  0
    5.1894    9.4673   20.7118 C   0  0  0  0  0  0  0  0  0  0  0  0
    7.3773    8.8224   21.4870 C   0  0  0  0  0  0  0  0  0  0  0  0
    8.4391    6.6439   21.0235 C   0  0  0  0  0  0  0  0  0  0  0  0
    9.6494   11.1353   20.4167 C   0  0  0  0  0  0  0  0  0  0  0  0
    8.1431    7.6829   21.9046 C   0  0  0  0  0  0  0  0  0  0  0  0
    7.7796   10.1314   21.5115 N   0  0  0  0  0  0  0  0  0  0  0  0
    9.2768    5.6183   21.4437 C   0  0  0  0  0  0  0  0  0  0  0  0
    8.6315    7.7322   23.1768 C   0  0  0  0  0  0  0  0  0  0  0  0
   13.0537    9.9821   20.5781 C   0  0  0  0  0  0  0  0  0  0  0  0
   10.3850    4.6575   23.2386 O   0  0  0  0  0  0  0  0  0  0  0  0
    4.2069    6.8450   20.7994 C   0  0  0  0  0  0  0  0  0  0  0  0
    3.0726   10.1043   19.8522 O   0  0  0  0  0  0  0  0  0  0  0  0
    5.5057    7.1196   21.1155 C   0  0  0  0  0  0  0  0  0  0  0  0
    7.0367   11.0229   21.9948 O   0  0  0  0  0  0  0  0  0  0  0  0
  1  8  4  0
  1 12  4  0
  2  9  1  0
  2 11  4  0
  2 25  4  0
  3 12  4  0
  3 14  1  0
  3 23  4  0
  4 13  4  0
  4 21  4  0
  4 24  1  0
  5  8  4  0
  5 23  4  0
  6 18  2  0
  7 15  4  0
  7 16  1  0
  7 27  4  0
  8 18  1  0
 10 18  1  0
 10 20  1  0
 11 15  4  0
 11 26  1  0
 13 22  4  0
 16 19  1  0
 16 20  2  0
 17 19  4  0
 17 21  4  0
 19 22  4  0
 20 28  1  0
 25 27  4  0
M  END
$$$$

 Created by Python create_sdf_string function

 28 30  0  0  0  0  0  0  0  0999 V2000
   11.4592   11.2893   18.7941 C   0  0  0  0  0  0  0  0  0  0  0  0
    3.4202    7.9009   20.3866 C   0  0  0  0  0  0  0  0  0  0  0  0
   13.5280   10.3522   19.3586 C   0  0  0  0  0  0  0  0  0  0  0  0
    9.6923    5.6468   22.7891 C   0  0  0  0  0  0  0  0  0  0  0  0
   11.7756   10.2554   20.8841 N   0  0  0  0  0  0  0  0  0  0  0  0
    8.9876   11.9370   19.8757 O   0  0  0  0  0  0  0  0  0  0  0  0
    6.0167    8.4478   21.1089 C   0  0  0  0  0  0  0  0  0  0  0  0
   11.0002   10.8890   20.0262 C   0  0  0  0  0  0  0  0  0  0  0  0
    2.1721    7.7393   20.0315 O   0  0  0  0  0  0  0  0  0  0  0  0
    9.1107   10.3880   21.3769 N   0  0  0  0  0  0  0  0  0  0  0  0
    3.9102    9.2008   20.3124 C   0  0  0  0  0  0  0  0  0  0  0  0
   12.7292   10.9960   18.4597 C   0  0  0  0  0  0  0  0  0  0  0  0
    9.3798    6.6793   23.6625 C   0  0  0  0  0  0  0  0  0  0  0  0
   14.7425   10.0739   19.0802 O   0  0  0  0  0  0  0  0  0  0  0  0
    5.1894    9.4673   20.7118 C   0  0  0  0  0  0  0  0  0  0  0  0
    7.3773    8.8224   21.4870 C   0  0  0  0  0  0  0  0  0  0  0  0
    8.4391    6.6439   21.0235 C   0  0  0  0  0  0  0  0  0  0  0  0
    9.6494   11.1353   20.4167 C   0  0  0  0  0  0  0  0  0  0  0  0
    8.1431    7.6829   21.9046 C   0  0  0  0  0  0  0  0  0  0  0  0
    7.7796   10.1314   21.5115 N   0  0  0  0  0  0  0  0  0  0  0  0
    9.2768    5.6183   21.4437 C   0  0  0  0  0  0  0  0  0  0  0  0
    8.6315    7.7322   23.1768 C   0  0  0  0  0  0  0  0  0  0  0  0
   13.0537    9.9821   20.5781 C   0  0  0  0  0  0  0  0  0  0  0  0
   10.3850    4.6575   23.2386 O   0  0  0  0  0  0  0  0  0  0  0  0
    4.2069    6.8450   20.7994 C   0  0  0  0  0  0  0  0  0  0  0  0
    3.0726   10.1043   19.8522 O   0  0  0  0  0  0  0  0  0  0  0  0
    5.5057    7.1196   21.1155 C   0  0  0  0  0  0  0  0  0  0  0  0
    7.0367   11.0229   21.9948 O   0  0  0  0  0  0  0  0  0  0  0  0
  1  8  4  0
  1 12  4  0
  2  9  1  0
  2 11  4  0
  2 25  4  0
  3 12  4  0
  3 14  1  0
  3 23  4  0
  4 13  4  0
  4 21  4  0
  4 24  1  0
  5  8  4  0
  5 23  4  0
  6 18  2  0
  7 15  4  0
  7 16  1  0
  7 27  4  0
  8 18  1  0
 10 18  1  0
 10 20  1  0
 11 15  4  0
 11 26  1  0
 13 22  4  0
 16 19  1  0
 16 20  2  0
 17 19  4  0
 17 21  4  0
 19 22  4  0
 20 28  1  0
 25 27  4  0
M  END
$$$$

 Created by Python create_sdf_string function

 28 30  0  0  0  0  0  0  0  0999 V2000
   11.4592   11.2893   18.7941 C   0  0  0  0  0  0  0  0  0  0  0  0
    3.4202    7.9009   20.3866 C   0  0  0  0  0  0  0  0  0  0  0  0
   13.5280   10.3522   19.3586 C   0  0  0  0  0  0  0  0  0  0  0  0
    9.6923    5.6468   22.7891 C   0  0  0  0  0  0  0  0  0  0  0  0
   11.7756   10.2554   20.8841 N   0  0  0  0  0  0  0  0  0  0  0  0
    8.9876   11.9370   19.8757 O   0  0  0  0  0  0  0  0  0  0  0  0
    6.0167    8.4478   21.1089 C   0  0  0  0  0  0  0  0  0  0  0  0
   11.0002   10.8890   20.0262 C   0  0  0  0  0  0  0  0  0  0  0  0
    2.1721    7.7393   20.0315 O   0  0  0  0  0  0  0  0  0  0  0  0
    9.1107   10.3880   21.3769 N   0  0  0  0  0  0  0  0  0  0  0  0
    3.9102    9.2008   20.3124 C   0  0  0  0  0  0  0  0  0  0  0  0
   12.7292   10.9960   18.4597 C   0  0  0  0  0  0  0  0  0  0  0  0
    9.3798    6.6793   23.6625 C   0  0  0  0  0  0  0  0  0  0  0  0
   14.7425   10.0739   19.0802 O   0  0  0  0  0  0  0  0  0  0  0  0
    5.1894    9.4673   20.7118 C   0  0  0  0  0  0  0  0  0  0  0  0
    7.3773    8.8224   21.4870 C   0  0  0  0  0  0  0  0  0  0  0  0
    8.4391    6.6439   21.0235 C   0  0  0  0  0  0  0  0  0  0  0  0
    9.6494   11.1353   20.4167 C   0  0  0  0  0  0  0  0  0  0  0  0
    8.1431    7.6829   21.9046 C   0  0  0  0  0  0  0  0  0  0  0  0
    7.7796   10.1314   21.5115 N   0  0  0  0  0  0  0  0  0  0  0  0
    9.2768    5.6183   21.4437 C   0  0  0  0  0  0  0  0  0  0  0  0
    8.6315    7.7322   23.1768 C   0  0  0  0  0  0  0  0  0  0  0  0
   13.0537    9.9821   20.5781 C   0  0  0  0  0  0  0  0  0  0  0  0
   10.3850    4.6575   23.2386 O   0  0  0  0  0  0  0  0  0  0  0  0
    4.2069    6.8450   20.7994 C   0  0  0  0  0  0  0  0  0  0  0  0
    3.0726   10.1043   19.8522 O   0  0  0  0  0  0  0  0  0  0  0  0
    5.5057    7.1196   21.1155 C   0  0  0  0  0  0  0  0  0  0  0  0
    7.0367   11.0229   21.9948 O   0  0  0  0  0  0  0  0  0  0  0  0
  1  8  4  0
  1 12  4  0
  2  9  1  0
  2 11  4  0
  2 25  4  0
  3 12  4  0
  3 14  1  0
  3 23  4  0
  4 13  4  0
  4 21  4  0
  4 24  1  0
  5  8  4  0
  5 23  4  0
  6 18  2  0
  7 15  4  0
  7 16  1  0
  7 27  4  0
  8 18  1  0
 10 18  1  0
 10 20  1  0
 11 15  4  0
 11 26  1  0
 13 22  4  0
 16 19  1  0
 16 20  2  0
 17 19  4  0
 17 21  4  0
 19 22  4  0
 20 28  1  0
 25 27  4  0
M  END
$$$$

 Created by Python create_sdf_string function

 28 30  0  0  0  0  0  0  0  0999 V2000
   11.4592   11.2893   18.7941 C   0  0  0  0  0  0  0  0  0  0  0  0
    3.4202    7.9009   20.3866 C   0  0  0  0  0  0  0  0  0  0  0  0
   13.5280   10.3522   19.3586 C   0  0  0  0  0  0  0  0  0  0  0  0
    9.6923    5.6468   22.7891 C   0  0  0  0  0  0  0  0  0  0  0  0
   11.7756   10.2554   20.8841 N   0  0  0  0  0  0  0  0  0  0  0  0
    8.9876   11.9370   19.8757 O   0  0  0  0  0  0  0  0  0  0  0  0
    6.0167    8.4478   21.1089 C   0  0  0  0  0  0  0  0  0  0  0  0
   11.0002   10.8890   20.0262 C   0  0  0  0  0  0  0  0  0  0  0  0
    2.1721    7.7393   20.0315 O   0  0  0  0  0  0  0  0  0  0  0  0
    9.1107   10.3880   21.3769 N   0  0  0  0  0  0  0  0  0  0  0  0
    3.9102    9.2008   20.3124 C   0  0  0  0  0  0  0  0  0  0  0  0
   12.7292   10.9960   18.4597 C   0  0  0  0  0  0  0  0  0  0  0  0
    9.3798    6.6793   23.6625 C   0  0  0  0  0  0  0  0  0  0  0  0
   14.7425   10.0739   19.0802 O   0  0  0  0  0  0  0  0  0  0  0  0
    5.1894    9.4673   20.7118 C   0  0  0  0  0  0  0  0  0  0  0  0
    7.3773    8.8224   21.4870 C   0  0  0  0  0  0  0  0  0  0  0  0
    8.4391    6.6439   21.0235 C   0  0  0  0  0  0  0  0  0  0  0  0
    9.6494   11.1353   20.4167 C   0  0  0  0  0  0  0  0  0  0  0  0
    8.1431    7.6829   21.9046 C   0  0  0  0  0  0  0  0  0  0  0  0
    7.7796   10.1314   21.5115 N   0  0  0  0  0  0  0  0  0  0  0  0
    9.2768    5.6183   21.4437 C   0  0  0  0  0  0  0  0  0  0  0  0
    8.6315    7.7322   23.1768 C   0  0  0  0  0  0  0  0  0  0  0  0
   13.0537    9.9821   20.5781 C   0  0  0  0  0  0  0  0  0  0  0  0
   10.3850    4.6575   23.2386 O   0  0  0  0  0  0  0  0  0  0  0  0
    4.2069    6.8450   20.7994 C   0  0  0  0  0  0  0  0  0  0  0  0
    3.0726   10.1043   19.8522 O   0  0  0  0  0  0  0  0  0  0  0  0
    5.5057    7.1196   21.1155 C   0  0  0  0  0  0  0  0  0  0  0  0
    7.0367   11.0229   21.9948 O   0  0  0  0  0  0  0  0  0  0  0  0
  1  8  4  0
  1 12  4  0
  2  9  1  0
  2 11  4  0
  2 25  4  0
  3 12  4  0
  3 14  1  0
  3 23  4  0
  4 13  4  0
  4 21  4  0
  4 24  1  0
  5  8  4  0
  5 23  4  0
  6 18  2  0
  7 15  4  0
  7 16  1  0
  7 27  4  0
  8 18  1  0
 10 18  1  0
 10 20  1  0
 11 15  4  0
 11 26  1  0
 13 22  4  0
 16 19  1  0
 16 20  2  0
 17 19  4  0
 17 21  4  0
 19 22  4  0
 20 28  1  0
 25 27  4  0
M  END
$$$$

 Created by Python create_sdf_string function

 28 30  0  0  0  0  0  0  0  0999 V2000
   11.4592   11.2893   18.7941 C   0  0  0  0  0  0  0  0  0  0  0  0
    3.4202    7.9009   20.3866 C   0  0  0  0  0  0  0  0  0  0  0  0
   13.5280   10.3522   19.3586 C   0  0  0  0  0  0  0  0  0  0  0  0
    9.6923    5.6468   22.7891 C   0  0  0  0  0  0  0  0  0  0  0  0
   11.7756   10.2554   20.8841 N   0  0  0  0  0  0  0  0  0  0  0  0
    8.9876   11.9370   19.8757 O   0  0  0  0  0  0  0  0  0  0  0  0
    6.0167    8.4478   21.1089 C   0  0  0  0  0  0  0  0  0  0  0  0
   11.0002   10.8890   20.0262 C   0  0  0  0  0  0  0  0  0  0  0  0
    2.1721    7.7393   20.0315 O   0  0  0  0  0  0  0  0  0  0  0  0
    9.1107   10.3880   21.3769 N   0  0  0  0  0  0  0  0  0  0  0  0
    3.9102    9.2008   20.3124 C   0  0  0  0  0  0  0  0  0  0  0  0
   12.7292   10.9960   18.4597 C   0  0  0  0  0  0  0  0  0  0  0  0
    9.3798    6.6793   23.6625 C   0  0  0  0  0  0  0  0  0  0  0  0
   14.7425   10.0739   19.0802 O   0  0  0  0  0  0  0  0  0  0  0  0
    5.1894    9.4673   20.7118 C   0  0  0  0  0  0  0  0  0  0  0  0
    7.3773    8.8224   21.4870 C   0  0  0  0  0  0  0  0  0  0  0  0
    8.4391    6.6439   21.0235 C   0  0  0  0  0  0  0  0  0  0  0  0
    9.6494   11.1353   20.4167 C   0  0  0  0  0  0  0  0  0  0  0  0
    8.1431    7.6829   21.9046 C   0  0  0  0  0  0  0  0  0  0  0  0
    7.7796   10.1314   21.5115 N   0  0  0  0  0  0  0  0  0  0  0  0
    9.2768    5.6183   21.4437 C   0  0  0  0  0  0  0  0  0  0  0  0
    8.6315    7.7322   23.1768 C   0  0  0  0  0  0  0  0  0  0  0  0
   13.0537    9.9821   20.5781 C   0  0  0  0  0  0  0  0  0  0  0  0
   10.3850    4.6575   23.2386 O   0  0  0  0  0  0  0  0  0  0  0  0
    4.2069    6.8450   20.7994 C   0  0  0  0  0  0  0  0  0  0  0  0
    3.0726   10.1043   19.8522 O   0  0  0  0  0  0  0  0  0  0  0  0
    5.5057    7.1196   21.1155 C   0  0  0  0  0  0  0  0  0  0  0  0
    7.0367   11.0229   21.9948 O   0  0  0  0  0  0  0  0  0  0  0  0
  1  8  4  0
  1 12  4  0
  2  9  1  0
  2 11  4  0
  2 25  4  0
  3 12  4  0
  3 14  1  0
  3 23  4  0
  4 13  4  0
  4 21  4  0
  4 24  1  0
  5  8  4  0
  5 23  4  0
  6 18  2  0
  7 15  4  0
  7 16  1  0
  7 27  4  0
  8 18  1  0
 10 18  1  0
 10 20  1  0
 11 15  4  0
 11 26  1  0
 13 22  4  0
 16 19  1  0
 16 20  2  0
 17 19  4  0
 17 21  4  0
 19 22  4  0
 20 28  1  0
 25 27  4  0
M  END
$$$$

 Created by Python create_sdf_string function

 28 30  0  0  0  0  0  0  0  0999 V2000
   11.4592   11.2893   18.7941 C   0  0  0  0  0  0  0  0  0  0  0  0
    3.4202    7.9009   20.3866 C   0  0  0  0  0  0  0  0  0  0  0  0
   13.5280   10.3522   19.3586 C   0  0  0  0  0  0  0  0  0  0  0  0
    9.6923    5.6468   22.7891 C   0  0  0  0  0  0  0  0  0  0  0  0
   11.7756   10.2554   20.8841 N   0  0  0  0  0  0  0  0  0  0  0  0
    8.9876   11.9370   19.8757 O   0  0  0  0  0  0  0  0  0  0  0  0
    6.0167    8.4478   21.1089 C   0  0  0  0  0  0  0  0  0  0  0  0
   11.0002   10.8890   20.0262 C   0  0  0  0  0  0  0  0  0  0  0  0
    2.1721    7.7393   20.0315 O   0  0  0  0  0  0  0  0  0  0  0  0
    9.1107   10.3880   21.3769 N   0  0  0  0  0  0  0  0  0  0  0  0
    3.9102    9.2008   20.3124 C   0  0  0  0  0  0  0  0  0  0  0  0
   12.7292   10.9960   18.4597 C   0  0  0  0  0  0  0  0  0  0  0  0
    9.3798    6.6793   23.6625 C   0  0  0  0  0  0  0  0  0  0  0  0
   14.7425   10.0739   19.0802 O   0  0  0  0  0  0  0  0  0  0  0  0
    5.1894    9.4673   20.7118 C   0  0  0  0  0  0  0  0  0  0  0  0
    7.3773    8.8224   21.4870 C   0  0  0  0  0  0  0  0  0  0  0  0
    8.4391    6.6439   21.0235 C   0  0  0  0  0  0  0  0  0  0  0  0
    9.6494   11.1353   20.4167 C   0  0  0  0  0  0  0  0  0  0  0  0
    8.1431    7.6829   21.9046 C   0  0  0  0  0  0  0  0  0  0  0  0
    7.7796   10.1314   21.5115 N   0  0  0  0  0  0  0  0  0  0  0  0
    9.2768    5.6183   21.4437 C   0  0  0  0  0  0  0  0  0  0  0  0
    8.6315    7.7322   23.1768 C   0  0  0  0  0  0  0  0  0  0  0  0
   13.0537    9.9821   20.5781 C   0  0  0  0  0  0  0  0  0  0  0  0
   10.3850    4.6575   23.2386 O   0  0  0  0  0  0  0  0  0  0  0  0
    4.2069    6.8450   20.7994 C   0  0  0  0  0  0  0  0  0  0  0  0
    3.0726   10.1043   19.8522 O   0  0  0  0  0  0  0  0  0  0  0  0
    5.5057    7.1196   21.1155 C   0  0  0  0  0  0  0  0  0  0  0  0
    7.0367   11.0229   21.9948 O   0  0  0  0  0  0  0  0  0  0  0  0
  1  8  4  0
  1 12  4  0
  2  9  1  0
  2 11  4  0
  2 25  4  0
  3 12  4  0
  3 14  1  0
  3 23  4  0
  4 13  4  0
  4 21  4  0
  4 24  1  0
  5  8  4  0
  5 23  4  0
  6 18  2  0
  7 15  4  0
  7 16  1  0
  7 27  4  0
  8 18  1  0
 10 18  1  0
 10 20  1  0
 11 15  4  0
 11 26  1  0
 13 22  4  0
 16 19  1  0
 16 20  2  0
 17 19  4  0
 17 21  4  0
 19 22  4  0
 20 28  1  0
 25 27  4  0
M  END
$$$$

 Created by Python create_sdf_string function

 28 30  0  0  0  0  0  0  0  0999 V2000
   11.4592   11.2893   18.7941 C   0  0  0  0  0  0  0  0  0  0  0  0
    3.4202    7.9009   20.3866 C   0  0  0  0  0  0  0  0  0  0  0  0
   13.5280   10.3522   19.3586 C   0  0  0  0  0  0  0  0  0  0  0  0
    9.6923    5.6468   22.7891 C   0  0  0  0  0  0  0  0  0  0  0  0
   11.7756   10.2554   20.8841 N   0  0  0  0  0  0  0  0  0  0  0  0
    8.9876   11.9370   19.8757 O   0  0  0  0  0  0  0  0  0  0  0  0
    6.0167    8.4478   21.1089 C   0  0  0  0  0  0  0  0  0  0  0  0
   11.0002   10.8890   20.0262 C   0  0  0  0  0  0  0  0  0  0  0  0
    2.1721    7.7393   20.0315 O   0  0  0  0  0  0  0  0  0  0  0  0
    9.1107   10.3880   21.3769 N   0  0  0  0  0  0  0  0  0  0  0  0
    3.9102    9.2008   20.3124 C   0  0  0  0  0  0  0  0  0  0  0  0
   12.7292   10.9960   18.4597 C   0  0  0  0  0  0  0  0  0  0  0  0
    9.3798    6.6793   23.6625 C   0  0  0  0  0  0  0  0  0  0  0  0
   14.7425   10.0739   19.0802 O   0  0  0  0  0  0  0  0  0  0  0  0
    5.1894    9.4673   20.7118 C   0  0  0  0  0  0  0  0  0  0  0  0
    7.3773    8.8224   21.4870 C   0  0  0  0  0  0  0  0  0  0  0  0
    8.4391    6.6439   21.0235 C   0  0  0  0  0  0  0  0  0  0  0  0
    9.6494   11.1353   20.4167 C   0  0  0  0  0  0  0  0  0  0  0  0
    8.1431    7.6829   21.9046 C   0  0  0  0  0  0  0  0  0  0  0  0
    7.7796   10.1314   21.5115 N   0  0  0  0  0  0  0  0  0  0  0  0
    9.2768    5.6183   21.4437 C   0  0  0  0  0  0  0  0  0  0  0  0
    8.6315    7.7322   23.1768 C   0  0  0  0  0  0  0  0  0  0  0  0
   13.0537    9.9821   20.5781 C   0  0  0  0  0  0  0  0  0  0  0  0
   10.3850    4.6575   23.2386 O   0  0  0  0  0  0  0  0  0  0  0  0
    4.2069    6.8450   20.7994 C   0  0  0  0  0  0  0  0  0  0  0  0
    3.0726   10.1043   19.8522 O   0  0  0  0  0  0  0  0  0  0  0  0
    5.5057    7.1196   21.1155 C   0  0  0  0  0  0  0  0  0  0  0  0
    7.0367   11.0229   21.9948 O   0  0  0  0  0  0  0  0  0  0  0  0
  1  8  4  0
  1 12  4  0
  2  9  1  0
  2 11  4  0
  2 25  4  0
  3 12  4  0
  3 14  1  0
  3 23  4  0
  4 13  4  0
  4 21  4  0
  4 24  1  0
  5  8  4  0
  5 23  4  0
  6 18  2  0
  7 15  4  0
  7 16  1  0
  7 27  4  0
  8 18  1  0
 10 18  1  0
 10 20  1  0
 11 15  4  0
 11 26  1  0
 13 22  4  0
 16 19  1  0
 16 20  2  0
 17 19  4  0
 17 21  4  0
 19 22  4  0
 20 28  1  0
 25 27  4  0
M  END
$$$$

 Created by Python create_sdf_string function

 28 30  0  0  0  0  0  0  0  0999 V2000
   11.4592   11.2893   18.7941 C   0  0  0  0  0  0  0  0  0  0  0  0
    3.4202    7.9009   20.3866 C   0  0  0  0  0  0  0  0  0  0  0  0
   13.5280   10.3522   19.3586 C   0  0  0  0  0  0  0  0  0  0  0  0
    9.6923    5.6468   22.7891 C   0  0  0  0  0  0  0  0  0  0  0  0
   11.7756   10.2554   20.8841 N   0  0  0  0  0  0  0  0  0  0  0  0
    8.9876   11.9370   19.8757 O   0  0  0  0  0  0  0  0  0  0  0  0
    6.0167    8.4478   21.1089 C   0  0  0  0  0  0  0  0  0  0  0  0
   11.0002   10.8890   20.0262 C   0  0  0  0  0  0  0  0  0  0  0  0
    2.1721    7.7393   20.0315 O   0  0  0  0  0  0  0  0  0  0  0  0
    9.1107   10.3880   21.3769 N   0  0  0  0  0  0  0  0  0  0  0  0
    3.9102    9.2008   20.3124 C   0  0  0  0  0  0  0  0  0  0  0  0
   12.7292   10.9960   18.4597 C   0  0  0  0  0  0  0  0  0  0  0  0
    9.3798    6.6793   23.6625 C   0  0  0  0  0  0  0  0  0  0  0  0
   14.7425   10.0739   19.0802 O   0  0  0  0  0  0  0  0  0  0  0  0
    5.1894    9.4673   20.7118 C   0  0  0  0  0  0  0  0  0  0  0  0
    7.3773    8.8224   21.4870 C   0  0  0  0  0  0  0  0  0  0  0  0
    8.4391    6.6439   21.0235 C   0  0  0  0  0  0  0  0  0  0  0  0
    9.6494   11.1353   20.4167 C   0  0  0  0  0  0  0  0  0  0  0  0
    8.1431    7.6829   21.9046 C   0  0  0  0  0  0  0  0  0  0  0  0
    7.7796   10.1314   21.5115 N   0  0  0  0  0  0  0  0  0  0  0  0
    9.2768    5.6183   21.4437 C   0  0  0  0  0  0  0  0  0  0  0  0
    8.6315    7.7322   23.1768 C   0  0  0  0  0  0  0  0  0  0  0  0
   13.0537    9.9821   20.5781 C   0  0  0  0  0  0  0  0  0  0  0  0
   10.3850    4.6575   23.2386 O   0  0  0  0  0  0  0  0  0  0  0  0
    4.2069    6.8450   20.7994 C   0  0  0  0  0  0  0  0  0  0  0  0
    3.0726   10.1043   19.8522 O   0  0  0  0  0  0  0  0  0  0  0  0
    5.5057    7.1196   21.1155 C   0  0  0  0  0  0  0  0  0  0  0  0
    7.0367   11.0229   21.9948 O   0  0  0  0  0  0  0  0  0  0  0  0
  1  8  4  0
  1 12  4  0
  2  9  1  0
  2 11  4  0
  2 25  4  0
  3 12  4  0
  3 14  1  0
  3 23  4  0
  4 13  4  0
  4 21  4  0
  4 24  1  0
  5  8  4  0
  5 23  4  0
  6 18  2  0
  7 15  4  0
  7 16  1  0
  7 27  4  0
  8 18  1  0
 10 18  1  0
 10 20  1  0
 11 15  4  0
 11 26  1  0
 13 22  4  0
 16 19  1  0
 16 20  2  0
 17 19  4  0
 17 21  4  0
 19 22  4  0
 20 28  1  0
 25 27  4  0
M  END
$$$$

 Created by Python create_sdf_string function

 28 30  0  0  0  0  0  0  0  0999 V2000
   11.4592   11.2893   18.7941 C   0  0  0  0  0  0  0  0  0  0  0  0
    3.4202    7.9009   20.3866 C   0  0  0  0  0  0  0  0  0  0  0  0
   13.5280   10.3522   19.3586 C   0  0  0  0  0  0  0  0  0  0  0  0
    9.6923    5.6468   22.7891 C   0  0  0  0  0  0  0  0  0  0  0  0
   11.7756   10.2554   20.8841 N   0  0  0  0  0  0  0  0  0  0  0  0
    8.9876   11.9370   19.8757 O   0  0  0  0  0  0  0  0  0  0  0  0
    6.0167    8.4478   21.1089 C   0  0  0  0  0  0  0  0  0  0  0  0
   11.0002   10.8890   20.0262 C   0  0  0  0  0  0  0  0  0  0  0  0
    2.1721    7.7393   20.0315 O   0  0  0  0  0  0  0  0  0  0  0  0
    9.1107   10.3880   21.3769 N   0  0  0  0  0  0  0  0  0  0  0  0
    3.9102    9.2008   20.3124 C   0  0  0  0  0  0  0  0  0  0  0  0
   12.7292   10.9960   18.4597 C   0  0  0  0  0  0  0  0  0  0  0  0
    9.3798    6.6793   23.6625 C   0  0  0  0  0  0  0  0  0  0  0  0
   14.7425   10.0739   19.0802 O   0  0  0  0  0  0  0  0  0  0  0  0
    5.1894    9.4673   20.7118 C   0  0  0  0  0  0  0  0  0  0  0  0
    7.3773    8.8224   21.4870 C   0  0  0  0  0  0  0  0  0  0  0  0
    8.4391    6.6439   21.0235 C   0  0  0  0  0  0  0  0  0  0  0  0
    9.6494   11.1353   20.4167 C   0  0  0  0  0  0  0  0  0  0  0  0
    8.1431    7.6829   21.9046 C   0  0  0  0  0  0  0  0  0  0  0  0
    7.7796   10.1314   21.5115 N   0  0  0  0  0  0  0  0  0  0  0  0
    9.2768    5.6183   21.4437 C   0  0  0  0  0  0  0  0  0  0  0  0
    8.6315    7.7322   23.1768 C   0  0  0  0  0  0  0  0  0  0  0  0
   13.0537    9.9821   20.5781 C   0  0  0  0  0  0  0  0  0  0  0  0
   10.3850    4.6575   23.2386 O   0  0  0  0  0  0  0  0  0  0  0  0
    4.2069    6.8450   20.7994 C   0  0  0  0  0  0  0  0  0  0  0  0
    3.0726   10.1043   19.8522 O   0  0  0  0  0  0  0  0  0  0  0  0
    5.5057    7.1196   21.1155 C   0  0  0  0  0  0  0  0  0  0  0  0
    7.0367   11.0229   21.9948 O   0  0  0  0  0  0  0  0  0  0  0  0
  1  8  4  0
  1 12  4  0
  2  9  1  0
  2 11  4  0
  2 25  4  0
  3 12  4  0
  3 14  1  0
  3 23  4  0
  4 13  4  0
  4 21  4  0
  4 24  1  0
  5  8  4  0
  5 23  4  0
  6 18  2  0
  7 15  4  0
  7 16  1  0
  7 27  4  0
  8 18  1  0
 10 18  1  0
 10 20  1  0
 11 15  4  0
 11 26  1  0
 13 22  4  0
 16 19  1  0
 16 20  2  0
 17 19  4  0
 17 21  4  0
 19 22  4  0
 20 28  1  0
 25 27  4  0
M  END
$$$$

 Created by Python create_sdf_string function

 28 30  0  0  0  0  0  0  0  0999 V2000
   11.4592   11.2893   18.7941 C   0  0  0  0  0  0  0  0  0  0  0  0
    3.4202    7.9009   20.3866 C   0  0  0  0  0  0  0  0  0  0  0  0
   13.5280   10.3522   19.3586 C   0  0  0  0  0  0  0  0  0  0  0  0
    9.6923    5.6468   22.7891 C   0  0  0  0  0  0  0  0  0  0  0  0
   11.7756   10.2554   20.8841 N   0  0  0  0  0  0  0  0  0  0  0  0
    8.9876   11.9370   19.8757 O   0  0  0  0  0  0  0  0  0  0  0  0
    6.0167    8.4478   21.1089 C   0  0  0  0  0  0  0  0  0  0  0  0
   11.0002   10.8890   20.0262 C   0  0  0  0  0  0  0  0  0  0  0  0
    2.1721    7.7393   20.0315 O   0  0  0  0  0  0  0  0  0  0  0  0
    9.1107   10.3880   21.3769 N   0  0  0  0  0  0  0  0  0  0  0  0
    3.9102    9.2008   20.3124 C   0  0  0  0  0  0  0  0  0  0  0  0
   12.7292   10.9960   18.4597 C   0  0  0  0  0  0  0  0  0  0  0  0
    9.3798    6.6793   23.6625 C   0  0  0  0  0  0  0  0  0  0  0  0
   14.7425   10.0739   19.0802 O   0  0  0  0  0  0  0  0  0  0  0  0
    5.1894    9.4673   20.7118 C   0  0  0  0  0  0  0  0  0  0  0  0
    7.3773    8.8224   21.4870 C   0  0  0  0  0  0  0  0  0  0  0  0
    8.4391    6.6439   21.0235 C   0  0  0  0  0  0  0  0  0  0  0  0
    9.6494   11.1353   20.4167 C   0  0  0  0  0  0  0  0  0  0  0  0
    8.1431    7.6829   21.9046 C   0  0  0  0  0  0  0  0  0  0  0  0
    7.7796   10.1314   21.5115 N   0  0  0  0  0  0  0  0  0  0  0  0
    9.2768    5.6183   21.4437 C   0  0  0  0  0  0  0  0  0  0  0  0
    8.6315    7.7322   23.1768 C   0  0  0  0  0  0  0  0  0  0  0  0
   13.0537    9.9821   20.5781 C   0  0  0  0  0  0  0  0  0  0  0  0
   10.3850    4.6575   23.2386 O   0  0  0  0  0  0  0  0  0  0  0  0
    4.2069    6.8450   20.7994 C   0  0  0  0  0  0  0  0  0  0  0  0
    3.0726   10.1043   19.8522 O   0  0  0  0  0  0  0  0  0  0  0  0
    5.5057    7.1196   21.1155 C   0  0  0  0  0  0  0  0  0  0  0  0
    7.0367   11.0229   21.9948 O   0  0  0  0  0  0  0  0  0  0  0  0
  1  8  4  0
  1 12  4  0
  2  9  1  0
  2 11  4  0
  2 25  4  0
  3 12  4  0
  3 14  1  0
  3 23  4  0
  4 13  4  0
  4 21  4  0
  4 24  1  0
  5  8  4  0
  5 23  4  0
  6 18  2  0
  7 15  4  0
  7 16  1  0
  7 27  4  0
  8 18  1  0
 10 18  1  0
 10 20  1  0
 11 15  4  0
 11 26  1  0
 13 22  4  0
 16 19  1  0
 16 20  2  0
 17 19  4  0
 17 21  4  0
 19 22  4  0
 20 28  1  0
 25 27  4  0
M  END
$$$$

 Created by Python create_sdf_string function

 28 30  0  0  0  0  0  0  0  0999 V2000
   11.4592   11.2893   18.7941 C   0  0  0  0  0  0  0  0  0  0  0  0
    3.4202    7.9009   20.3866 C   0  0  0  0  0  0  0  0  0  0  0  0
   13.5280   10.3522   19.3586 C   0  0  0  0  0  0  0  0  0  0  0  0
    9.6923    5.6468   22.7891 C   0  0  0  0  0  0  0  0  0  0  0  0
   11.7756   10.2554   20.8841 N   0  0  0  0  0  0  0  0  0  0  0  0
    8.9876   11.9370   19.8757 O   0  0  0  0  0  0  0  0  0  0  0  0
    6.0167    8.4478   21.1089 C   0  0  0  0  0  0  0  0  0  0  0  0
   11.0002   10.8890   20.0262 C   0  0  0  0  0  0  0  0  0  0  0  0
    2.1721    7.7393   20.0315 O   0  0  0  0  0  0  0  0  0  0  0  0
    9.1107   10.3880   21.3769 N   0  0  0  0  0  0  0  0  0  0  0  0
    3.9102    9.2008   20.3124 C   0  0  0  0  0  0  0  0  0  0  0  0
   12.7292   10.9960   18.4597 C   0  0  0  0  0  0  0  0  0  0  0  0
    9.3798    6.6793   23.6625 C   0  0  0  0  0  0  0  0  0  0  0  0
   14.7425   10.0739   19.0802 O   0  0  0  0  0  0  0  0  0  0  0  0
    5.1894    9.4673   20.7118 C   0  0  0  0  0  0  0  0  0  0  0  0
    7.3773    8.8224   21.4870 C   0  0  0  0  0  0  0  0  0  0  0  0
    8.4391    6.6439   21.0235 C   0  0  0  0  0  0  0  0  0  0  0  0
    9.6494   11.1353   20.4167 C   0  0  0  0  0  0  0  0  0  0  0  0
    8.1431    7.6829   21.9046 C   0  0  0  0  0  0  0  0  0  0  0  0
    7.7796   10.1314   21.5115 N   0  0  0  0  0  0  0  0  0  0  0  0
    9.2768    5.6183   21.4437 C   0  0  0  0  0  0  0  0  0  0  0  0
    8.6315    7.7322   23.1768 C   0  0  0  0  0  0  0  0  0  0  0  0
   13.0537    9.9821   20.5781 C   0  0  0  0  0  0  0  0  0  0  0  0
   10.3850    4.6575   23.2386 O   0  0  0  0  0  0  0  0  0  0  0  0
    4.2069    6.8450   20.7994 C   0  0  0  0  0  0  0  0  0  0  0  0
    3.0726   10.1043   19.8522 O   0  0  0  0  0  0  0  0  0  0  0  0
    5.5057    7.1196   21.1155 C   0  0  0  0  0  0  0  0  0  0  0  0
    7.0367   11.0229   21.9948 O   0  0  0  0  0  0  0  0  0  0  0  0
  1  8  4  0
  1 12  4  0
  2  9  1  0
  2 11  4  0
  2 25  4  0
  3 12  4  0
  3 14  1  0
  3 23  4  0
  4 13  4  0
  4 21  4  0
  4 24  1  0
  5  8  4  0
  5 23  4  0
  6 18  2  0
  7 15  4  0
  7 16  1  0
  7 27  4  0
  8 18  1  0
 10 18  1  0
 10 20  1  0
 11 15  4  0
 11 26  1  0
 13 22  4  0
 16 19  1  0
 16 20  2  0
 17 19  4  0
 17 21  4  0
 19 22  4  0
 20 28  1  0
 25 27  4  0
M  END
$$$$

 Created by Python create_sdf_string function

 28 30  0  0  0  0  0  0  0  0999 V2000
   11.4592   11.2893   18.7941 C   0  0  0  0  0  0  0  0  0  0  0  0
    3.4202    7.9009   20.3866 C   0  0  0  0  0  0  0  0  0  0  0  0
   13.5280   10.3522   19.3586 C   0  0  0  0  0  0  0  0  0  0  0  0
    9.6923    5.6468   22.7891 C   0  0  0  0  0  0  0  0  0  0  0  0
   11.7756   10.2554   20.8841 N   0  0  0  0  0  0  0  0  0  0  0  0
    8.9876   11.9370   19.8757 O   0  0  0  0  0  0  0  0  0  0  0  0
    6.0167    8.4478   21.1089 C   0  0  0  0  0  0  0  0  0  0  0  0
   11.0002   10.8890   20.0262 C   0  0  0  0  0  0  0  0  0  0  0  0
    2.1721    7.7393   20.0315 O   0  0  0  0  0  0  0  0  0  0  0  0
    9.1107   10.3880   21.3769 N   0  0  0  0  0  0  0  0  0  0  0  0
    3.9102    9.2008   20.3124 C   0  0  0  0  0  0  0  0  0  0  0  0
   12.7292   10.9960   18.4597 C   0  0  0  0  0  0  0  0  0  0  0  0
    9.3798    6.6793   23.6625 C   0  0  0  0  0  0  0  0  0  0  0  0
   14.7425   10.0739   19.0802 O   0  0  0  0  0  0  0  0  0  0  0  0
    5.1894    9.4673   20.7118 C   0  0  0  0  0  0  0  0  0  0  0  0
    7.3773    8.8224   21.4870 C   0  0  0  0  0  0  0  0  0  0  0  0
    8.4391    6.6439   21.0235 C   0  0  0  0  0  0  0  0  0  0  0  0
    9.6494   11.1353   20.4167 C   0  0  0  0  0  0  0  0  0  0  0  0
    8.1431    7.6829   21.9046 C   0  0  0  0  0  0  0  0  0  0  0  0
    7.7796   10.1314   21.5115 N   0  0  0  0  0  0  0  0  0  0  0  0
    9.2768    5.6183   21.4437 C   0  0  0  0  0  0  0  0  0  0  0  0
    8.6315    7.7322   23.1768 C   0  0  0  0  0  0  0  0  0  0  0  0
   13.0537    9.9821   20.5781 C   0  0  0  0  0  0  0  0  0  0  0  0
   10.3850    4.6575   23.2386 O   0  0  0  0  0  0  0  0  0  0  0  0
    4.2069    6.8450   20.7994 C   0  0  0  0  0  0  0  0  0  0  0  0
    3.0726   10.1043   19.8522 O   0  0  0  0  0  0  0  0  0  0  0  0
    5.5057    7.1196   21.1155 C   0  0  0  0  0  0  0  0  0  0  0  0
    7.0367   11.0229   21.9948 O   0  0  0  0  0  0  0  0  0  0  0  0
  1  8  4  0
  1 12  4  0
  2  9  1  0
  2 11  4  0
  2 25  4  0
  3 12  4  0
  3 14  1  0
  3 23  4  0
  4 13  4  0
  4 21  4  0
  4 24  1  0
  5  8  4  0
  5 23  4  0
  6 18  2  0
  7 15  4  0
  7 16  1  0
  7 27  4  0
  8 18  1  0
 10 18  1  0
 10 20  1  0
 11 15  4  0
 11 26  1  0
 13 22  4  0
 16 19  1  0
 16 20  2  0
 17 19  4  0
 17 21  4  0
 19 22  4  0
 20 28  1  0
 25 27  4  0
M  END
$$$$

 Created by Python create_sdf_string function

 28 30  0  0  0  0  0  0  0  0999 V2000
   11.4592   11.2893   18.7941 C   0  0  0  0  0  0  0  0  0  0  0  0
    3.4202    7.9009   20.3866 C   0  0  0  0  0  0  0  0  0  0  0  0
   13.5280   10.3522   19.3586 C   0  0  0  0  0  0  0  0  0  0  0  0
    9.6923    5.6468   22.7891 C   0  0  0  0  0  0  0  0  0  0  0  0
   11.7756   10.2554   20.8841 N   0  0  0  0  0  0  0  0  0  0  0  0
    8.9876   11.9370   19.8757 O   0  0  0  0  0  0  0  0  0  0  0  0
    6.0167    8.4478   21.1089 C   0  0  0  0  0  0  0  0  0  0  0  0
   11.0002   10.8890   20.0262 C   0  0  0  0  0  0  0  0  0  0  0  0
    2.1721    7.7393   20.0315 O   0  0  0  0  0  0  0  0  0  0  0  0
    9.1107   10.3880   21.3769 N   0  0  0  0  0  0  0  0  0  0  0  0
    3.9102    9.2008   20.3124 C   0  0  0  0  0  0  0  0  0  0  0  0
   12.7292   10.9960   18.4597 C   0  0  0  0  0  0  0  0  0  0  0  0
    9.3798    6.6793   23.6625 C   0  0  0  0  0  0  0  0  0  0  0  0
   14.7425   10.0739   19.0802 O   0  0  0  0  0  0  0  0  0  0  0  0
    5.1894    9.4673   20.7118 C   0  0  0  0  0  0  0  0  0  0  0  0
    7.3773    8.8224   21.4870 C   0  0  0  0  0  0  0  0  0  0  0  0
    8.4391    6.6439   21.0235 C   0  0  0  0  0  0  0  0  0  0  0  0
    9.6494   11.1353   20.4167 C   0  0  0  0  0  0  0  0  0  0  0  0
    8.1431    7.6829   21.9046 C   0  0  0  0  0  0  0  0  0  0  0  0
    7.7796   10.1314   21.5115 N   0  0  0  0  0  0  0  0  0  0  0  0
    9.2768    5.6183   21.4437 C   0  0  0  0  0  0  0  0  0  0  0  0
    8.6315    7.7322   23.1768 C   0  0  0  0  0  0  0  0  0  0  0  0
   13.0537    9.9821   20.5781 C   0  0  0  0  0  0  0  0  0  0  0  0
   10.3850    4.6575   23.2386 O   0  0  0  0  0  0  0  0  0  0  0  0
    4.2069    6.8450   20.7994 C   0  0  0  0  0  0  0  0  0  0  0  0
    3.0726   10.1043   19.8522 O   0  0  0  0  0  0  0  0  0  0  0  0
    5.5057    7.1196   21.1155 C   0  0  0  0  0  0  0  0  0  0  0  0
    7.0367   11.0229   21.9948 O   0  0  0  0  0  0  0  0  0  0  0  0
  1  8  4  0
  1 12  4  0
  2  9  1  0
  2 11  4  0
  2 25  4  0
  3 12  4  0
  3 14  1  0
  3 23  4  0
  4 13  4  0
  4 21  4  0
  4 24  1  0
  5  8  4  0
  5 23  4  0
  6 18  2  0
  7 15  4  0
  7 16  1  0
  7 27  4  0
  8 18  1  0
 10 18  1  0
 10 20  1  0
 11 15  4  0
 11 26  1  0
 13 22  4  0
 16 19  1  0
 16 20  2  0
 17 19  4  0
 17 21  4  0
 19 22  4  0
 20 28  1  0
 25 27  4  0
M  END
$$$$

 Created by Python create_sdf_string function

 28 30  0  0  0  0  0  0  0  0999 V2000
   11.4592   11.2893   18.7941 C   0  0  0  0  0  0  0  0  0  0  0  0
    3.4202    7.9009   20.3866 C   0  0  0  0  0  0  0  0  0  0  0  0
   13.5280   10.3522   19.3586 C   0  0  0  0  0  0  0  0  0  0  0  0
    9.6923    5.6468   22.7891 C   0  0  0  0  0  0  0  0  0  0  0  0
   11.7756   10.2554   20.8841 N   0  0  0  0  0  0  0  0  0  0  0  0
    8.9876   11.9370   19.8757 O   0  0  0  0  0  0  0  0  0  0  0  0
    6.0167    8.4478   21.1089 C   0  0  0  0  0  0  0  0  0  0  0  0
   11.0002   10.8890   20.0262 C   0  0  0  0  0  0  0  0  0  0  0  0
    2.1721    7.7393   20.0315 O   0  0  0  0  0  0  0  0  0  0  0  0
    9.1107   10.3880   21.3769 N   0  0  0  0  0  0  0  0  0  0  0  0
    3.9102    9.2008   20.3124 C   0  0  0  0  0  0  0  0  0  0  0  0
   12.7292   10.9960   18.4597 C   0  0  0  0  0  0  0  0  0  0  0  0
    9.3798    6.6793   23.6625 C   0  0  0  0  0  0  0  0  0  0  0  0
   14.7425   10.0739   19.0802 O   0  0  0  0  0  0  0  0  0  0  0  0
    5.1894    9.4673   20.7118 C   0  0  0  0  0  0  0  0  0  0  0  0
    7.3773    8.8224   21.4870 C   0  0  0  0  0  0  0  0  0  0  0  0
    8.4391    6.6439   21.0235 C   0  0  0  0  0  0  0  0  0  0  0  0
    9.6494   11.1353   20.4167 C   0  0  0  0  0  0  0  0  0  0  0  0
    8.1431    7.6829   21.9046 C   0  0  0  0  0  0  0  0  0  0  0  0
    7.7796   10.1314   21.5115 N   0  0  0  0  0  0  0  0  0  0  0  0
    9.2768    5.6183   21.4437 C   0  0  0  0  0  0  0  0  0  0  0  0
    8.6315    7.7322   23.1768 C   0  0  0  0  0  0  0  0  0  0  0  0
   13.0537    9.9821   20.5781 C   0  0  0  0  0  0  0  0  0  0  0  0
   10.3850    4.6575   23.2386 O   0  0  0  0  0  0  0  0  0  0  0  0
    4.2069    6.8450   20.7994 C   0  0  0  0  0  0  0  0  0  0  0  0
    3.0726   10.1043   19.8522 O   0  0  0  0  0  0  0  0  0  0  0  0
    5.5057    7.1196   21.1155 C   0  0  0  0  0  0  0  0  0  0  0  0
    7.0367   11.0229   21.9948 O   0  0  0  0  0  0  0  0  0  0  0  0
  1  8  4  0
  1 12  4  0
  2  9  1  0
  2 11  4  0
  2 25  4  0
  3 12  4  0
  3 14  1  0
  3 23  4  0
  4 13  4  0
  4 21  4  0
  4 24  1  0
  5  8  4  0
  5 23  4  0
  6 18  2  0
  7 15  4  0
  7 16  1  0
  7 27  4  0
  8 18  1  0
 10 18  1  0
 10 20  1  0
 11 15  4  0
 11 26  1  0
 13 22  4  0
 16 19  1  0
 16 20  2  0
 17 19  4  0
 17 21  4  0
 19 22  4  0
 20 28  1  0
 25 27  4  0
M  END
$$$$

 Created by Python create_sdf_string function

 28 30  0  0  0  0  0  0  0  0999 V2000
   11.4592   11.2893   18.7941 C   0  0  0  0  0  0  0  0  0  0  0  0
    3.4202    7.9009   20.3866 C   0  0  0  0  0  0  0  0  0  0  0  0
   13.5280   10.3522   19.3586 C   0  0  0  0  0  0  0  0  0  0  0  0
    9.6923    5.6468   22.7891 C   0  0  0  0  0  0  0  0  0  0  0  0
   11.7756   10.2554   20.8841 N   0  0  0  0  0  0  0  0  0  0  0  0
    8.9876   11.9370   19.8757 O   0  0  0  0  0  0  0  0  0  0  0  0
    6.0167    8.4478   21.1089 C   0  0  0  0  0  0  0  0  0  0  0  0
   11.0002   10.8890   20.0262 C   0  0  0  0  0  0  0  0  0  0  0  0
    2.1721    7.7393   20.0315 O   0  0  0  0  0  0  0  0  0  0  0  0
    9.1107   10.3880   21.3769 N   0  0  0  0  0  0  0  0  0  0  0  0
    3.9102    9.2008   20.3124 C   0  0  0  0  0  0  0  0  0  0  0  0
   12.7292   10.9960   18.4597 C   0  0  0  0  0  0  0  0  0  0  0  0
    9.3798    6.6793   23.6625 C   0  0  0  0  0  0  0  0  0  0  0  0
   14.7425   10.0739   19.0802 O   0  0  0  0  0  0  0  0  0  0  0  0
    5.1894    9.4673   20.7118 C   0  0  0  0  0  0  0  0  0  0  0  0
    7.3773    8.8224   21.4870 C   0  0  0  0  0  0  0  0  0  0  0  0
    8.4391    6.6439   21.0235 C   0  0  0  0  0  0  0  0  0  0  0  0
    9.6494   11.1353   20.4167 C   0  0  0  0  0  0  0  0  0  0  0  0
    8.1431    7.6829   21.9046 C   0  0  0  0  0  0  0  0  0  0  0  0
    7.7796   10.1314   21.5115 N   0  0  0  0  0  0  0  0  0  0  0  0
    9.2768    5.6183   21.4437 C   0  0  0  0  0  0  0  0  0  0  0  0
    8.6315    7.7322   23.1768 C   0  0  0  0  0  0  0  0  0  0  0  0
   13.0537    9.9821   20.5781 C   0  0  0  0  0  0  0  0  0  0  0  0
   10.3850    4.6575   23.2386 O   0  0  0  0  0  0  0  0  0  0  0  0
    4.2069    6.8450   20.7994 C   0  0  0  0  0  0  0  0  0  0  0  0
    3.0726   10.1043   19.8522 O   0  0  0  0  0  0  0  0  0  0  0  0
    5.5057    7.1196   21.1155 C   0  0  0  0  0  0  0  0  0  0  0  0
    7.0367   11.0229   21.9948 O   0  0  0  0  0  0  0  0  0  0  0  0
  1  8  4  0
  1 12  4  0
  2  9  1  0
  2 11  4  0
  2 25  4  0
  3 12  4  0
  3 14  1  0
  3 23  4  0
  4 13  4  0
  4 21  4  0
  4 24  1  0
  5  8  4  0
  5 23  4  0
  6 18  2  0
  7 15  4  0
  7 16  1  0
  7 27  4  0
  8 18  1  0
 10 18  1  0
 10 20  1  0
 11 15  4  0
 11 26  1  0
 13 22  4  0
 16 19  1  0
 16 20  2  0
 17 19  4  0
 17 21  4  0
 19 22  4  0
 20 28  1  0
 25 27  4  0
M  END
$$$$

 Created by Python create_sdf_string function

 28 30  0  0  0  0  0  0  0  0999 V2000
   11.4592   11.2893   18.7941 C   0  0  0  0  0  0  0  0  0  0  0  0
    3.4202    7.9009   20.3866 C   0  0  0  0  0  0  0  0  0  0  0  0
   13.5280   10.3522   19.3586 C   0  0  0  0  0  0  0  0  0  0  0  0
    9.6923    5.6468   22.7891 C   0  0  0  0  0  0  0  0  0  0  0  0
   11.7756   10.2554   20.8841 N   0  0  0  0  0  0  0  0  0  0  0  0
    8.9876   11.9370   19.8757 O   0  0  0  0  0  0  0  0  0  0  0  0
    6.0167    8.4478   21.1089 C   0  0  0  0  0  0  0  0  0  0  0  0
   11.0002   10.8890   20.0262 C   0  0  0  0  0  0  0  0  0  0  0  0
    2.1721    7.7393   20.0315 O   0  0  0  0  0  0  0  0  0  0  0  0
    9.1107   10.3880   21.3769 N   0  0  0  0  0  0  0  0  0  0  0  0
    3.9102    9.2008   20.3124 C   0  0  0  0  0  0  0  0  0  0  0  0
   12.7292   10.9960   18.4597 C   0  0  0  0  0  0  0  0  0  0  0  0
    9.3798    6.6793   23.6625 C   0  0  0  0  0  0  0  0  0  0  0  0
   14.7425   10.0739   19.0802 O   0  0  0  0  0  0  0  0  0  0  0  0
    5.1894    9.4673   20.7118 C   0  0  0  0  0  0  0  0  0  0  0  0
    7.3773    8.8224   21.4870 C   0  0  0  0  0  0  0  0  0  0  0  0
    8.4391    6.6439   21.0235 C   0  0  0  0  0  0  0  0  0  0  0  0
    9.6494   11.1353   20.4167 C   0  0  0  0  0  0  0  0  0  0  0  0
    8.1431    7.6829   21.9046 C   0  0  0  0  0  0  0  0  0  0  0  0
    7.7796   10.1314   21.5115 N   0  0  0  0  0  0  0  0  0  0  0  0
    9.2768    5.6183   21.4437 C   0  0  0  0  0  0  0  0  0  0  0  0
    8.6315    7.7322   23.1768 C   0  0  0  0  0  0  0  0  0  0  0  0
   13.0537    9.9821   20.5781 C   0  0  0  0  0  0  0  0  0  0  0  0
   10.3850    4.6575   23.2386 O   0  0  0  0  0  0  0  0  0  0  0  0
    4.2069    6.8450   20.7994 C   0  0  0  0  0  0  0  0  0  0  0  0
    3.0726   10.1043   19.8522 O   0  0  0  0  0  0  0  0  0  0  0  0
    5.5057    7.1196   21.1155 C   0  0  0  0  0  0  0  0  0  0  0  0
    7.0367   11.0229   21.9948 O   0  0  0  0  0  0  0  0  0  0  0  0
  1  8  4  0
  1 12  4  0
  2  9  1  0
  2 11  4  0
  2 25  4  0
  3 12  4  0
  3 14  1  0
  3 23  4  0
  4 13  4  0
  4 21  4  0
  4 24  1  0
  5  8  4  0
  5 23  4  0
  6 18  2  0
  7 15  4  0
  7 16  1  0
  7 27  4  0
  8 18  1  0
 10 18  1  0
 10 20  1  0
 11 15  4  0
 11 26  1  0
 13 22  4  0
 16 19  1  0
 16 20  2  0
 17 19  4  0
 17 21  4  0
 19 22  4  0
 20 28  1  0
 25 27  4  0
M  END
$$$$

 Created by Python create_sdf_string function

 28 30  0  0  0  0  0  0  0  0999 V2000
   11.4592   11.2893   18.7941 C   0  0  0  0  0  0  0  0  0  0  0  0
    3.4202    7.9009   20.3866 C   0  0  0  0  0  0  0  0  0  0  0  0
   13.5280   10.3522   19.3586 C   0  0  0  0  0  0  0  0  0  0  0  0
    9.6923    5.6468   22.7891 C   0  0  0  0  0  0  0  0  0  0  0  0
   11.7756   10.2554   20.8841 N   0  0  0  0  0  0  0  0  0  0  0  0
    8.9876   11.9370   19.8757 O   0  0  0  0  0  0  0  0  0  0  0  0
    6.0167    8.4478   21.1089 C   0  0  0  0  0  0  0  0  0  0  0  0
   11.0002   10.8890   20.0262 C   0  0  0  0  0  0  0  0  0  0  0  0
    2.1721    7.7393   20.0315 O   0  0  0  0  0  0  0  0  0  0  0  0
    9.1107   10.3880   21.3769 N   0  0  0  0  0  0  0  0  0  0  0  0
    3.9102    9.2008   20.3124 C   0  0  0  0  0  0  0  0  0  0  0  0
   12.7292   10.9960   18.4597 C   0  0  0  0  0  0  0  0  0  0  0  0
    9.3798    6.6793   23.6625 C   0  0  0  0  0  0  0  0  0  0  0  0
   14.7425   10.0739   19.0802 O   0  0  0  0  0  0  0  0  0  0  0  0
    5.1894    9.4673   20.7118 C   0  0  0  0  0  0  0  0  0  0  0  0
    7.3773    8.8224   21.4870 C   0  0  0  0  0  0  0  0  0  0  0  0
    8.4391    6.6439   21.0235 C   0  0  0  0  0  0  0  0  0  0  0  0
    9.6494   11.1353   20.4167 C   0  0  0  0  0  0  0  0  0  0  0  0
    8.1431    7.6829   21.9046 C   0  0  0  0  0  0  0  0  0  0  0  0
    7.7796   10.1314   21.5115 N   0  0  0  0  0  0  0  0  0  0  0  0
    9.2768    5.6183   21.4437 C   0  0  0  0  0  0  0  0  0  0  0  0
    8.6315    7.7322   23.1768 C   0  0  0  0  0  0  0  0  0  0  0  0
   13.0537    9.9821   20.5781 C   0  0  0  0  0  0  0  0  0  0  0  0
   10.3850    4.6575   23.2386 O   0  0  0  0  0  0  0  0  0  0  0  0
    4.2069    6.8450   20.7994 C   0  0  0  0  0  0  0  0  0  0  0  0
    3.0726   10.1043   19.8522 O   0  0  0  0  0  0  0  0  0  0  0  0
    5.5057    7.1196   21.1155 C   0  0  0  0  0  0  0  0  0  0  0  0
    7.0367   11.0229   21.9948 O   0  0  0  0  0  0  0  0  0  0  0  0
  1  8  4  0
  1 12  4  0
  2  9  1  0
  2 11  4  0
  2 25  4  0
  3 12  4  0
  3 14  1  0
  3 23  4  0
  4 13  4  0
  4 21  4  0
  4 24  1  0
  5  8  4  0
  5 23  4  0
  6 18  2  0
  7 15  4  0
  7 16  1  0
  7 27  4  0
  8 18  1  0
 10 18  1  0
 10 20  1  0
 11 15  4  0
 11 26  1  0
 13 22  4  0
 16 19  1  0
 16 20  2  0
 17 19  4  0
 17 21  4  0
 19 22  4  0
 20 28  1  0
 25 27  4  0
M  END
$$$$

 Created by Python create_sdf_string function

 28 30  0  0  0  0  0  0  0  0999 V2000
   11.4592   11.2893   18.7941 C   0  0  0  0  0  0  0  0  0  0  0  0
    3.4202    7.9009   20.3866 C   0  0  0  0  0  0  0  0  0  0  0  0
   13.5280   10.3522   19.3586 C   0  0  0  0  0  0  0  0  0  0  0  0
    9.6923    5.6468   22.7891 C   0  0  0  0  0  0  0  0  0  0  0  0
   11.7756   10.2554   20.8841 N   0  0  0  0  0  0  0  0  0  0  0  0
    8.9876   11.9370   19.8757 O   0  0  0  0  0  0  0  0  0  0  0  0
    6.0167    8.4478   21.1089 C   0  0  0  0  0  0  0  0  0  0  0  0
   11.0002   10.8890   20.0262 C   0  0  0  0  0  0  0  0  0  0  0  0
    2.1721    7.7393   20.0315 O   0  0  0  0  0  0  0  0  0  0  0  0
    9.1107   10.3880   21.3769 N   0  0  0  0  0  0  0  0  0  0  0  0
    3.9102    9.2008   20.3124 C   0  0  0  0  0  0  0  0  0  0  0  0
   12.7292   10.9960   18.4597 C   0  0  0  0  0  0  0  0  0  0  0  0
    9.3798    6.6793   23.6625 C   0  0  0  0  0  0  0  0  0  0  0  0
   14.7425   10.0739   19.0802 O   0  0  0  0  0  0  0  0  0  0  0  0
    5.1894    9.4673   20.7118 C   0  0  0  0  0  0  0  0  0  0  0  0
    7.3773    8.8224   21.4870 C   0  0  0  0  0  0  0  0  0  0  0  0
    8.4391    6.6439   21.0235 C   0  0  0  0  0  0  0  0  0  0  0  0
    9.6494   11.1353   20.4167 C   0  0  0  0  0  0  0  0  0  0  0  0
    8.1431    7.6829   21.9046 C   0  0  0  0  0  0  0  0  0  0  0  0
    7.7796   10.1314   21.5115 N   0  0  0  0  0  0  0  0  0  0  0  0
    9.2768    5.6183   21.4437 C   0  0  0  0  0  0  0  0  0  0  0  0
    8.6315    7.7322   23.1768 C   0  0  0  0  0  0  0  0  0  0  0  0
   13.0537    9.9821   20.5781 C   0  0  0  0  0  0  0  0  0  0  0  0
   10.3850    4.6575   23.2386 O   0  0  0  0  0  0  0  0  0  0  0  0
    4.2069    6.8450   20.7994 C   0  0  0  0  0  0  0  0  0  0  0  0
    3.0726   10.1043   19.8522 O   0  0  0  0  0  0  0  0  0  0  0  0
    5.5057    7.1196   21.1155 C   0  0  0  0  0  0  0  0  0  0  0  0
    7.0367   11.0229   21.9948 O   0  0  0  0  0  0  0  0  0  0  0  0
  1  8  4  0
  1 12  4  0
  2  9  1  0
  2 11  4  0
  2 25  4  0
  3 12  4  0
  3 14  1  0
  3 23  4  0
  4 13  4  0
  4 21  4  0
  4 24  1  0
  5  8  4  0
  5 23  4  0
  6 18  2  0
  7 15  4  0
  7 16  1  0
  7 27  4  0
  8 18  1  0
 10 18  1  0
 10 20  1  0
 11 15  4  0
 11 26  1  0
 13 22  4  0
 16 19  1  0
 16 20  2  0
 17 19  4  0
 17 21  4  0
 19 22  4  0
 20 28  1  0
 25 27  4  0
M  END
$$$$

 Created by Python create_sdf_string function

 28 30  0  0  0  0  0  0  0  0999 V2000
   11.4592   11.2893   18.7941 C   0  0  0  0  0  0  0  0  0  0  0  0
    3.4202    7.9009   20.3866 C   0  0  0  0  0  0  0  0  0  0  0  0
   13.5280   10.3522   19.3586 C   0  0  0  0  0  0  0  0  0  0  0  0
    9.6923    5.6468   22.7891 C   0  0  0  0  0  0  0  0  0  0  0  0
   11.7756   10.2554   20.8841 N   0  0  0  0  0  0  0  0  0  0  0  0
    8.9876   11.9370   19.8757 O   0  0  0  0  0  0  0  0  0  0  0  0
    6.0167    8.4478   21.1089 C   0  0  0  0  0  0  0  0  0  0  0  0
   11.0002   10.8890   20.0262 C   0  0  0  0  0  0  0  0  0  0  0  0
    2.1721    7.7393   20.0315 O   0  0  0  0  0  0  0  0  0  0  0  0
    9.1107   10.3880   21.3769 N   0  0  0  0  0  0  0  0  0  0  0  0
    3.9102    9.2008   20.3124 C   0  0  0  0  0  0  0  0  0  0  0  0
   12.7292   10.9960   18.4597 C   0  0  0  0  0  0  0  0  0  0  0  0
    9.3798    6.6793   23.6625 C   0  0  0  0  0  0  0  0  0  0  0  0
   14.7425   10.0739   19.0802 O   0  0  0  0  0  0  0  0  0  0  0  0
    5.1894    9.4673   20.7118 C   0  0  0  0  0  0  0  0  0  0  0  0
    7.3773    8.8224   21.4870 C   0  0  0  0  0  0  0  0  0  0  0  0
    8.4391    6.6439   21.0235 C   0  0  0  0  0  0  0  0  0  0  0  0
    9.6494   11.1353   20.4167 C   0  0  0  0  0  0  0  0  0  0  0  0
    8.1431    7.6829   21.9046 C   0  0  0  0  0  0  0  0  0  0  0  0
    7.7796   10.1314   21.5115 N   0  0  0  0  0  0  0  0  0  0  0  0
    9.2768    5.6183   21.4437 C   0  0  0  0  0  0  0  0  0  0  0  0
    8.6315    7.7322   23.1768 C   0  0  0  0  0  0  0  0  0  0  0  0
   13.0537    9.9821   20.5781 C   0  0  0  0  0  0  0  0  0  0  0  0
   10.3850    4.6575   23.2386 O   0  0  0  0  0  0  0  0  0  0  0  0
    4.2069    6.8450   20.7994 C   0  0  0  0  0  0  0  0  0  0  0  0
    3.0726   10.1043   19.8522 O   0  0  0  0  0  0  0  0  0  0  0  0
    5.5057    7.1196   21.1155 C   0  0  0  0  0  0  0  0  0  0  0  0
    7.0367   11.0229   21.9948 O   0  0  0  0  0  0  0  0  0  0  0  0
  1  8  4  0
  1 12  4  0
  2  9  1  0
  2 11  4  0
  2 25  4  0
  3 12  4  0
  3 14  1  0
  3 23  4  0
  4 13  4  0
  4 21  4  0
  4 24  1  0
  5  8  4  0
  5 23  4  0
  6 18  2  0
  7 15  4  0
  7 16  1  0
  7 27  4  0
  8 18  1  0
 10 18  1  0
 10 20  1  0
 11 15  4  0
 11 26  1  0
 13 22  4  0
 16 19  1  0
 16 20  2  0
 17 19  4  0
 17 21  4  0
 19 22  4  0
 20 28  1  0
 25 27  4  0
M  END
$$$$

 Created by Python create_sdf_string function

 28 30  0  0  0  0  0  0  0  0999 V2000
   11.4592   11.2893   18.7941 C   0  0  0  0  0  0  0  0  0  0  0  0
    3.4202    7.9009   20.3866 C   0  0  0  0  0  0  0  0  0  0  0  0
   13.5280   10.3522   19.3586 C   0  0  0  0  0  0  0  0  0  0  0  0
    9.6923    5.6468   22.7891 C   0  0  0  0  0  0  0  0  0  0  0  0
   11.7756   10.2554   20.8841 N   0  0  0  0  0  0  0  0  0  0  0  0
    8.9876   11.9370   19.8757 O   0  0  0  0  0  0  0  0  0  0  0  0
    6.0167    8.4478   21.1089 C   0  0  0  0  0  0  0  0  0  0  0  0
   11.0002   10.8890   20.0262 C   0  0  0  0  0  0  0  0  0  0  0  0
    2.1721    7.7393   20.0315 O   0  0  0  0  0  0  0  0  0  0  0  0
    9.1107   10.3880   21.3769 N   0  0  0  0  0  0  0  0  0  0  0  0
    3.9102    9.2008   20.3124 C   0  0  0  0  0  0  0  0  0  0  0  0
   12.7292   10.9960   18.4597 C   0  0  0  0  0  0  0  0  0  0  0  0
    9.3798    6.6793   23.6625 C   0  0  0  0  0  0  0  0  0  0  0  0
   14.7425   10.0739   19.0802 O   0  0  0  0  0  0  0  0  0  0  0  0
    5.1894    9.4673   20.7118 C   0  0  0  0  0  0  0  0  0  0  0  0
    7.3773    8.8224   21.4870 C   0  0  0  0  0  0  0  0  0  0  0  0
    8.4391    6.6439   21.0235 C   0  0  0  0  0  0  0  0  0  0  0  0
    9.6494   11.1353   20.4167 C   0  0  0  0  0  0  0  0  0  0  0  0
    8.1431    7.6829   21.9046 C   0  0  0  0  0  0  0  0  0  0  0  0
    7.7796   10.1314   21.5115 N   0  0  0  0  0  0  0  0  0  0  0  0
    9.2768    5.6183   21.4437 C   0  0  0  0  0  0  0  0  0  0  0  0
    8.6315    7.7322   23.1768 C   0  0  0  0  0  0  0  0  0  0  0  0
   13.0537    9.9821   20.5781 C   0  0  0  0  0  0  0  0  0  0  0  0
   10.3850    4.6575   23.2386 O   0  0  0  0  0  0  0  0  0  0  0  0
    4.2069    6.8450   20.7994 C   0  0  0  0  0  0  0  0  0  0  0  0
    3.0726   10.1043   19.8522 O   0  0  0  0  0  0  0  0  0  0  0  0
    5.5057    7.1196   21.1155 C   0  0  0  0  0  0  0  0  0  0  0  0
    7.0367   11.0229   21.9948 O   0  0  0  0  0  0  0  0  0  0  0  0
  1  8  4  0
  1 12  4  0
  2  9  1  0
  2 11  4  0
  2 25  4  0
  3 12  4  0
  3 14  1  0
  3 23  4  0
  4 13  4  0
  4 21  4  0
  4 24  1  0
  5  8  4  0
  5 23  4  0
  6 18  2  0
  7 15  4  0
  7 16  1  0
  7 27  4  0
  8 18  1  0
 10 18  1  0
 10 20  1  0
 11 15  4  0
 11 26  1  0
 13 22  4  0
 16 19  1  0
 16 20  2  0
 17 19  4  0
 17 21  4  0
 19 22  4  0
 20 28  1  0
 25 27  4  0
M  END
$$$$

 Created by Python create_sdf_string function

 28 30  0  0  0  0  0  0  0  0999 V2000
   11.4592   11.2893   18.7941 C   0  0  0  0  0  0  0  0  0  0  0  0
    3.4202    7.9009   20.3866 C   0  0  0  0  0  0  0  0  0  0  0  0
   13.5280   10.3522   19.3586 C   0  0  0  0  0  0  0  0  0  0  0  0
    9.6923    5.6468   22.7891 C   0  0  0  0  0  0  0  0  0  0  0  0
   11.7756   10.2554   20.8841 N   0  0  0  0  0  0  0  0  0  0  0  0
    8.9876   11.9370   19.8757 O   0  0  0  0  0  0  0  0  0  0  0  0
    6.0167    8.4478   21.1089 C   0  0  0  0  0  0  0  0  0  0  0  0
   11.0002   10.8890   20.0262 C   0  0  0  0  0  0  0  0  0  0  0  0
    2.1721    7.7393   20.0315 O   0  0  0  0  0  0  0  0  0  0  0  0
    9.1107   10.3880   21.3769 N   0  0  0  0  0  0  0  0  0  0  0  0
    3.9102    9.2008   20.3124 C   0  0  0  0  0  0  0  0  0  0  0  0
   12.7292   10.9960   18.4597 C   0  0  0  0  0  0  0  0  0  0  0  0
    9.3798    6.6793   23.6625 C   0  0  0  0  0  0  0  0  0  0  0  0
   14.7425   10.0739   19.0802 O   0  0  0  0  0  0  0  0  0  0  0  0
    5.1894    9.4673   20.7118 C   0  0  0  0  0  0  0  0  0  0  0  0
    7.3773    8.8224   21.4870 C   0  0  0  0  0  0  0  0  0  0  0  0
    8.4391    6.6439   21.0235 C   0  0  0  0  0  0  0  0  0  0  0  0
    9.6494   11.1353   20.4167 C   0  0  0  0  0  0  0  0  0  0  0  0
    8.1431    7.6829   21.9046 C   0  0  0  0  0  0  0  0  0  0  0  0
    7.7796   10.1314   21.5115 N   0  0  0  0  0  0  0  0  0  0  0  0
    9.2768    5.6183   21.4437 C   0  0  0  0  0  0  0  0  0  0  0  0
    8.6315    7.7322   23.1768 C   0  0  0  0  0  0  0  0  0  0  0  0
   13.0537    9.9821   20.5781 C   0  0  0  0  0  0  0  0  0  0  0  0
   10.3850    4.6575   23.2386 O   0  0  0  0  0  0  0  0  0  0  0  0
    4.2069    6.8450   20.7994 C   0  0  0  0  0  0  0  0  0  0  0  0
    3.0726   10.1043   19.8522 O   0  0  0  0  0  0  0  0  0  0  0  0
    5.5057    7.1196   21.1155 C   0  0  0  0  0  0  0  0  0  0  0  0
    7.0367   11.0229   21.9948 O   0  0  0  0  0  0  0  0  0  0  0  0
  1  8  4  0
  1 12  4  0
  2  9  1  0
  2 11  4  0
  2 25  4  0
  3 12  4  0
  3 14  1  0
  3 23  4  0
  4 13  4  0
  4 21  4  0
  4 24  1  0
  5  8  4  0
  5 23  4  0
  6 18  2  0
  7 15  4  0
  7 16  1  0
  7 27  4  0
  8 18  1  0
 10 18  1  0
 10 20  1  0
 11 15  4  0
 11 26  1  0
 13 22  4  0
 16 19  1  0
 16 20  2  0
 17 19  4  0
 17 21  4  0
 19 22  4  0
 20 28  1  0
 25 27  4  0
M  END
$$$$

 Created by Python create_sdf_string function

 28 30  0  0  0  0  0  0  0  0999 V2000
   11.4592   11.2893   18.7941 C   0  0  0  0  0  0  0  0  0  0  0  0
    3.4202    7.9009   20.3866 C   0  0  0  0  0  0  0  0  0  0  0  0
   13.5280   10.3522   19.3586 C   0  0  0  0  0  0  0  0  0  0  0  0
    9.6923    5.6468   22.7891 C   0  0  0  0  0  0  0  0  0  0  0  0
   11.7756   10.2554   20.8841 N   0  0  0  0  0  0  0  0  0  0  0  0
    8.9876   11.9370   19.8757 O   0  0  0  0  0  0  0  0  0  0  0  0
    6.0167    8.4478   21.1089 C   0  0  0  0  0  0  0  0  0  0  0  0
   11.0002   10.8890   20.0262 C   0  0  0  0  0  0  0  0  0  0  0  0
    2.1721    7.7393   20.0315 O   0  0  0  0  0  0  0  0  0  0  0  0
    9.1107   10.3880   21.3769 N   0  0  0  0  0  0  0  0  0  0  0  0
    3.9102    9.2008   20.3124 C   0  0  0  0  0  0  0  0  0  0  0  0
   12.7292   10.9960   18.4597 C   0  0  0  0  0  0  0  0  0  0  0  0
    9.3798    6.6793   23.6625 C   0  0  0  0  0  0  0  0  0  0  0  0
   14.7425   10.0739   19.0802 O   0  0  0  0  0  0  0  0  0  0  0  0
    5.1894    9.4673   20.7118 C   0  0  0  0  0  0  0  0  0  0  0  0
    7.3773    8.8224   21.4870 C   0  0  0  0  0  0  0  0  0  0  0  0
    8.4391    6.6439   21.0235 C   0  0  0  0  0  0  0  0  0  0  0  0
    9.6494   11.1353   20.4167 C   0  0  0  0  0  0  0  0  0  0  0  0
    8.1431    7.6829   21.9046 C   0  0  0  0  0  0  0  0  0  0  0  0
    7.7796   10.1314   21.5115 N   0  0  0  0  0  0  0  0  0  0  0  0
    9.2768    5.6183   21.4437 C   0  0  0  0  0  0  0  0  0  0  0  0
    8.6315    7.7322   23.1768 C   0  0  0  0  0  0  0  0  0  0  0  0
   13.0537    9.9821   20.5781 C   0  0  0  0  0  0  0  0  0  0  0  0
   10.3850    4.6575   23.2386 O   0  0  0  0  0  0  0  0  0  0  0  0
    4.2069    6.8450   20.7994 C   0  0  0  0  0  0  0  0  0  0  0  0
    3.0726   10.1043   19.8522 O   0  0  0  0  0  0  0  0  0  0  0  0
    5.5057    7.1196   21.1155 C   0  0  0  0  0  0  0  0  0  0  0  0
    7.0367   11.0229   21.9948 O   0  0  0  0  0  0  0  0  0  0  0  0
  1  8  4  0
  1 12  4  0
  2  9  1  0
  2 11  4  0
  2 25  4  0
  3 12  4  0
  3 14  1  0
  3 23  4  0
  4 13  4  0
  4 21  4  0
  4 24  1  0
  5  8  4  0
  5 23  4  0
  6 18  2  0
  7 15  4  0
  7 16  1  0
  7 27  4  0
  8 18  1  0
 10 18  1  0
 10 20  1  0
 11 15  4  0
 11 26  1  0
 13 22  4  0
 16 19  1  0
 16 20  2  0
 17 19  4  0
 17 21  4  0
 19 22  4  0
 20 28  1  0
 25 27  4  0
M  END
$$$$

 Created by Python create_sdf_string function

 28 30  0  0  0  0  0  0  0  0999 V2000
   11.4592   11.2893   18.7941 C   0  0  0  0  0  0  0  0  0  0  0  0
    3.4202    7.9009   20.3866 C   0  0  0  0  0  0  0  0  0  0  0  0
   13.5280   10.3522   19.3586 C   0  0  0  0  0  0  0  0  0  0  0  0
    9.6923    5.6468   22.7891 C   0  0  0  0  0  0  0  0  0  0  0  0
   11.7756   10.2554   20.8841 N   0  0  0  0  0  0  0  0  0  0  0  0
    8.9876   11.9370   19.8757 O   0  0  0  0  0  0  0  0  0  0  0  0
    6.0167    8.4478   21.1089 C   0  0  0  0  0  0  0  0  0  0  0  0
   11.0002   10.8890   20.0262 C   0  0  0  0  0  0  0  0  0  0  0  0
    2.1721    7.7393   20.0315 O   0  0  0  0  0  0  0  0  0  0  0  0
    9.1107   10.3880   21.3769 N   0  0  0  0  0  0  0  0  0  0  0  0
    3.9102    9.2008   20.3124 C   0  0  0  0  0  0  0  0  0  0  0  0
   12.7292   10.9960   18.4597 C   0  0  0  0  0  0  0  0  0  0  0  0
    9.3798    6.6793   23.6625 C   0  0  0  0  0  0  0  0  0  0  0  0
   14.7425   10.0739   19.0802 O   0  0  0  0  0  0  0  0  0  0  0  0
    5.1894    9.4673   20.7118 C   0  0  0  0  0  0  0  0  0  0  0  0
    7.3773    8.8224   21.4870 C   0  0  0  0  0  0  0  0  0  0  0  0
    8.4391    6.6439   21.0235 C   0  0  0  0  0  0  0  0  0  0  0  0
    9.6494   11.1353   20.4167 C   0  0  0  0  0  0  0  0  0  0  0  0
    8.1431    7.6829   21.9046 C   0  0  0  0  0  0  0  0  0  0  0  0
    7.7796   10.1314   21.5115 N   0  0  0  0  0  0  0  0  0  0  0  0
    9.2768    5.6183   21.4437 C   0  0  0  0  0  0  0  0  0  0  0  0
    8.6315    7.7322   23.1768 C   0  0  0  0  0  0  0  0  0  0  0  0
   13.0537    9.9821   20.5781 C   0  0  0  0  0  0  0  0  0  0  0  0
   10.3850    4.6575   23.2386 O   0  0  0  0  0  0  0  0  0  0  0  0
    4.2069    6.8450   20.7994 C   0  0  0  0  0  0  0  0  0  0  0  0
    3.0726   10.1043   19.8522 O   0  0  0  0  0  0  0  0  0  0  0  0
    5.5057    7.1196   21.1155 C   0  0  0  0  0  0  0  0  0  0  0  0
    7.0367   11.0229   21.9948 O   0  0  0  0  0  0  0  0  0  0  0  0
  1  8  4  0
  1 12  4  0
  2  9  1  0
  2 11  4  0
  2 25  4  0
  3 12  4  0
  3 14  1  0
  3 23  4  0
  4 13  4  0
  4 21  4  0
  4 24  1  0
  5  8  4  0
  5 23  4  0
  6 18  2  0
  7 15  4  0
  7 16  1  0
  7 27  4  0
  8 18  1  0
 10 18  1  0
 10 20  1  0
 11 15  4  0
 11 26  1  0
 13 22  4  0
 16 19  1  0
 16 20  2  0
 17 19  4  0
 17 21  4  0
 19 22  4  0
 20 28  1  0
 25 27  4  0
M  END
$$$$

 Created by Python create_sdf_string function

 28 30  0  0  0  0  0  0  0  0999 V2000
   11.4592   11.2893   18.7941 C   0  0  0  0  0  0  0  0  0  0  0  0
    3.4202    7.9009   20.3866 C   0  0  0  0  0  0  0  0  0  0  0  0
   13.5280   10.3522   19.3586 C   0  0  0  0  0  0  0  0  0  0  0  0
    9.6923    5.6468   22.7891 C   0  0  0  0  0  0  0  0  0  0  0  0
   11.7756   10.2554   20.8841 N   0  0  0  0  0  0  0  0  0  0  0  0
    8.9876   11.9370   19.8757 O   0  0  0  0  0  0  0  0  0  0  0  0
    6.0167    8.4478   21.1089 C   0  0  0  0  0  0  0  0  0  0  0  0
   11.0002   10.8890   20.0262 C   0  0  0  0  0  0  0  0  0  0  0  0
    2.1721    7.7393   20.0315 O   0  0  0  0  0  0  0  0  0  0  0  0
    9.1107   10.3880   21.3769 N   0  0  0  0  0  0  0  0  0  0  0  0
    3.9102    9.2008   20.3124 C   0  0  0  0  0  0  0  0  0  0  0  0
   12.7292   10.9960   18.4597 C   0  0  0  0  0  0  0  0  0  0  0  0
    9.3798    6.6793   23.6625 C   0  0  0  0  0  0  0  0  0  0  0  0
   14.7425   10.0739   19.0802 O   0  0  0  0  0  0  0  0  0  0  0  0
    5.1894    9.4673   20.7118 C   0  0  0  0  0  0  0  0  0  0  0  0
    7.3773    8.8224   21.4870 C   0  0  0  0  0  0  0  0  0  0  0  0
    8.4391    6.6439   21.0235 C   0  0  0  0  0  0  0  0  0  0  0  0
    9.6494   11.1353   20.4167 C   0  0  0  0  0  0  0  0  0  0  0  0
    8.1431    7.6829   21.9046 C   0  0  0  0  0  0  0  0  0  0  0  0
    7.7796   10.1314   21.5115 N   0  0  0  0  0  0  0  0  0  0  0  0
    9.2768    5.6183   21.4437 C   0  0  0  0  0  0  0  0  0  0  0  0
    8.6315    7.7322   23.1768 C   0  0  0  0  0  0  0  0  0  0  0  0
   13.0537    9.9821   20.5781 C   0  0  0  0  0  0  0  0  0  0  0  0
   10.3850    4.6575   23.2386 O   0  0  0  0  0  0  0  0  0  0  0  0
    4.2069    6.8450   20.7994 C   0  0  0  0  0  0  0  0  0  0  0  0
    3.0726   10.1043   19.8522 O   0  0  0  0  0  0  0  0  0  0  0  0
    5.5057    7.1196   21.1155 C   0  0  0  0  0  0  0  0  0  0  0  0
    7.0367   11.0229   21.9948 O   0  0  0  0  0  0  0  0  0  0  0  0
  1  8  4  0
  1 12  4  0
  2  9  1  0
  2 11  4  0
  2 25  4  0
  3 12  4  0
  3 14  1  0
  3 23  4  0
  4 13  4  0
  4 21  4  0
  4 24  1  0
  5  8  4  0
  5 23  4  0
  6 18  2  0
  7 15  4  0
  7 16  1  0
  7 27  4  0
  8 18  1  0
 10 18  1  0
 10 20  1  0
 11 15  4  0
 11 26  1  0
 13 22  4  0
 16 19  1  0
 16 20  2  0
 17 19  4  0
 17 21  4  0
 19 22  4  0
 20 28  1  0
 25 27  4  0
M  END
$$$$

 Created by Python create_sdf_string function

 28 30  0  0  0  0  0  0  0  0999 V2000
   11.4592   11.2893   18.7941 C   0  0  0  0  0  0  0  0  0  0  0  0
    3.4202    7.9009   20.3866 C   0  0  0  0  0  0  0  0  0  0  0  0
   13.5280   10.3522   19.3586 C   0  0  0  0  0  0  0  0  0  0  0  0
    9.6923    5.6468   22.7891 C   0  0  0  0  0  0  0  0  0  0  0  0
   11.7756   10.2554   20.8841 N   0  0  0  0  0  0  0  0  0  0  0  0
    8.9876   11.9370   19.8757 O   0  0  0  0  0  0  0  0  0  0  0  0
    6.0167    8.4478   21.1089 C   0  0  0  0  0  0  0  0  0  0  0  0
   11.0002   10.8890   20.0262 C   0  0  0  0  0  0  0  0  0  0  0  0
    2.1721    7.7393   20.0315 O   0  0  0  0  0  0  0  0  0  0  0  0
    9.1107   10.3880   21.3769 N   0  0  0  0  0  0  0  0  0  0  0  0
    3.9102    9.2008   20.3124 C   0  0  0  0  0  0  0  0  0  0  0  0
   12.7292   10.9960   18.4597 C   0  0  0  0  0  0  0  0  0  0  0  0
    9.3798    6.6793   23.6625 C   0  0  0  0  0  0  0  0  0  0  0  0
   14.7425   10.0739   19.0802 O   0  0  0  0  0  0  0  0  0  0  0  0
    5.1894    9.4673   20.7118 C   0  0  0  0  0  0  0  0  0  0  0  0
    7.3773    8.8224   21.4870 C   0  0  0  0  0  0  0  0  0  0  0  0
    8.4391    6.6439   21.0235 C   0  0  0  0  0  0  0  0  0  0  0  0
    9.6494   11.1353   20.4167 C   0  0  0  0  0  0  0  0  0  0  0  0
    8.1431    7.6829   21.9046 C   0  0  0  0  0  0  0  0  0  0  0  0
    7.7796   10.1314   21.5115 N   0  0  0  0  0  0  0  0  0  0  0  0
    9.2768    5.6183   21.4437 C   0  0  0  0  0  0  0  0  0  0  0  0
    8.6315    7.7322   23.1768 C   0  0  0  0  0  0  0  0  0  0  0  0
   13.0537    9.9821   20.5781 C   0  0  0  0  0  0  0  0  0  0  0  0
   10.3850    4.6575   23.2386 O   0  0  0  0  0  0  0  0  0  0  0  0
    4.2069    6.8450   20.7994 C   0  0  0  0  0  0  0  0  0  0  0  0
    3.0726   10.1043   19.8522 O   0  0  0  0  0  0  0  0  0  0  0  0
    5.5057    7.1196   21.1155 C   0  0  0  0  0  0  0  0  0  0  0  0
    7.0367   11.0229   21.9948 O   0  0  0  0  0  0  0  0  0  0  0  0
  1  8  4  0
  1 12  4  0
  2  9  1  0
  2 11  4  0
  2 25  4  0
  3 12  4  0
  3 14  1  0
  3 23  4  0
  4 13  4  0
  4 21  4  0
  4 24  1  0
  5  8  4  0
  5 23  4  0
  6 18  2  0
  7 15  4  0
  7 16  1  0
  7 27  4  0
  8 18  1  0
 10 18  1  0
 10 20  1  0
 11 15  4  0
 11 26  1  0
 13 22  4  0
 16 19  1  0
 16 20  2  0
 17 19  4  0
 17 21  4  0
 19 22  4  0
 20 28  1  0
 25 27  4  0
M  END
$$$$

 Created by Python create_sdf_string function

 28 30  0  0  0  0  0  0  0  0999 V2000
   11.4592   11.2893   18.7941 C   0  0  0  0  0  0  0  0  0  0  0  0
    3.4202    7.9009   20.3866 C   0  0  0  0  0  0  0  0  0  0  0  0
   13.5280   10.3522   19.3586 C   0  0  0  0  0  0  0  0  0  0  0  0
    9.6923    5.6468   22.7891 C   0  0  0  0  0  0  0  0  0  0  0  0
   11.7756   10.2554   20.8841 N   0  0  0  0  0  0  0  0  0  0  0  0
    8.9876   11.9370   19.8757 O   0  0  0  0  0  0  0  0  0  0  0  0
    6.0167    8.4478   21.1089 C   0  0  0  0  0  0  0  0  0  0  0  0
   11.0002   10.8890   20.0262 C   0  0  0  0  0  0  0  0  0  0  0  0
    2.1721    7.7393   20.0315 O   0  0  0  0  0  0  0  0  0  0  0  0
    9.1107   10.3880   21.3769 N   0  0  0  0  0  0  0  0  0  0  0  0
    3.9102    9.2008   20.3124 C   0  0  0  0  0  0  0  0  0  0  0  0
   12.7292   10.9960   18.4597 C   0  0  0  0  0  0  0  0  0  0  0  0
    9.3798    6.6793   23.6625 C   0  0  0  0  0  0  0  0  0  0  0  0
   14.7425   10.0739   19.0802 O   0  0  0  0  0  0  0  0  0  0  0  0
    5.1894    9.4673   20.7118 C   0  0  0  0  0  0  0  0  0  0  0  0
    7.3773    8.8224   21.4870 C   0  0  0  0  0  0  0  0  0  0  0  0
    8.4391    6.6439   21.0235 C   0  0  0  0  0  0  0  0  0  0  0  0
    9.6494   11.1353   20.4167 C   0  0  0  0  0  0  0  0  0  0  0  0
    8.1431    7.6829   21.9046 C   0  0  0  0  0  0  0  0  0  0  0  0
    7.7796   10.1314   21.5115 N   0  0  0  0  0  0  0  0  0  0  0  0
    9.2768    5.6183   21.4437 C   0  0  0  0  0  0  0  0  0  0  0  0
    8.6315    7.7322   23.1768 C   0  0  0  0  0  0  0  0  0  0  0  0
   13.0537    9.9821   20.5781 C   0  0  0  0  0  0  0  0  0  0  0  0
   10.3850    4.6575   23.2386 O   0  0  0  0  0  0  0  0  0  0  0  0
    4.2069    6.8450   20.7994 C   0  0  0  0  0  0  0  0  0  0  0  0
    3.0726   10.1043   19.8522 O   0  0  0  0  0  0  0  0  0  0  0  0
    5.5057    7.1196   21.1155 C   0  0  0  0  0  0  0  0  0  0  0  0
    7.0367   11.0229   21.9948 O   0  0  0  0  0  0  0  0  0  0  0  0
  1  8  4  0
  1 12  4  0
  2  9  1  0
  2 11  4  0
  2 25  4  0
  3 12  4  0
  3 14  1  0
  3 23  4  0
  4 13  4  0
  4 21  4  0
  4 24  1  0
  5  8  4  0
  5 23  4  0
  6 18  2  0
  7 15  4  0
  7 16  1  0
  7 27  4  0
  8 18  1  0
 10 18  1  0
 10 20  1  0
 11 15  4  0
 11 26  1  0
 13 22  4  0
 16 19  1  0
 16 20  2  0
 17 19  4  0
 17 21  4  0
 19 22  4  0
 20 28  1  0
 25 27  4  0
M  END
$$$$

 Created by Python create_sdf_string function

 28 30  0  0  0  0  0  0  0  0999 V2000
   11.4592   11.2893   18.7941 C   0  0  0  0  0  0  0  0  0  0  0  0
    3.4202    7.9009   20.3866 C   0  0  0  0  0  0  0  0  0  0  0  0
   13.5280   10.3522   19.3586 C   0  0  0  0  0  0  0  0  0  0  0  0
    9.6923    5.6468   22.7891 C   0  0  0  0  0  0  0  0  0  0  0  0
   11.7756   10.2554   20.8841 N   0  0  0  0  0  0  0  0  0  0  0  0
    8.9876   11.9370   19.8757 O   0  0  0  0  0  0  0  0  0  0  0  0
    6.0167    8.4478   21.1089 C   0  0  0  0  0  0  0  0  0  0  0  0
   11.0002   10.8890   20.0262 C   0  0  0  0  0  0  0  0  0  0  0  0
    2.1721    7.7393   20.0315 O   0  0  0  0  0  0  0  0  0  0  0  0
    9.1107   10.3880   21.3769 N   0  0  0  0  0  0  0  0  0  0  0  0
    3.9102    9.2008   20.3124 C   0  0  0  0  0  0  0  0  0  0  0  0
   12.7292   10.9960   18.4597 C   0  0  0  0  0  0  0  0  0  0  0  0
    9.3798    6.6793   23.6625 C   0  0  0  0  0  0  0  0  0  0  0  0
   14.7425   10.0739   19.0802 O   0  0  0  0  0  0  0  0  0  0  0  0
    5.1894    9.4673   20.7118 C   0  0  0  0  0  0  0  0  0  0  0  0
    7.3773    8.8224   21.4870 C   0  0  0  0  0  0  0  0  0  0  0  0
    8.4391    6.6439   21.0235 C   0  0  0  0  0  0  0  0  0  0  0  0
    9.6494   11.1353   20.4167 C   0  0  0  0  0  0  0  0  0  0  0  0
    8.1431    7.6829   21.9046 C   0  0  0  0  0  0  0  0  0  0  0  0
    7.7796   10.1314   21.5115 N   0  0  0  0  0  0  0  0  0  0  0  0
    9.2768    5.6183   21.4437 C   0  0  0  0  0  0  0  0  0  0  0  0
    8.6315    7.7322   23.1768 C   0  0  0  0  0  0  0  0  0  0  0  0
   13.0537    9.9821   20.5781 C   0  0  0  0  0  0  0  0  0  0  0  0
   10.3850    4.6575   23.2386 O   0  0  0  0  0  0  0  0  0  0  0  0
    4.2069    6.8450   20.7994 C   0  0  0  0  0  0  0  0  0  0  0  0
    3.0726   10.1043   19.8522 O   0  0  0  0  0  0  0  0  0  0  0  0
    5.5057    7.1196   21.1155 C   0  0  0  0  0  0  0  0  0  0  0  0
    7.0367   11.0229   21.9948 O   0  0  0  0  0  0  0  0  0  0  0  0
  1  8  4  0
  1 12  4  0
  2  9  1  0
  2 11  4  0
  2 25  4  0
  3 12  4  0
  3 14  1  0
  3 23  4  0
  4 13  4  0
  4 21  4  0
  4 24  1  0
  5  8  4  0
  5 23  4  0
  6 18  2  0
  7 15  4  0
  7 16  1  0
  7 27  4  0
  8 18  1  0
 10 18  1  0
 10 20  1  0
 11 15  4  0
 11 26  1  0
 13 22  4  0
 16 19  1  0
 16 20  2  0
 17 19  4  0
 17 21  4  0
 19 22  4  0
 20 28  1  0
 25 27  4  0
M  END
$$$$

 Created by Python create_sdf_string function

 28 30  0  0  0  0  0  0  0  0999 V2000
   11.4592   11.2893   18.7941 C   0  0  0  0  0  0  0  0  0  0  0  0
    3.4202    7.9009   20.3866 C   0  0  0  0  0  0  0  0  0  0  0  0
   13.5280   10.3522   19.3586 C   0  0  0  0  0  0  0  0  0  0  0  0
    9.6923    5.6468   22.7891 C   0  0  0  0  0  0  0  0  0  0  0  0
   11.7756   10.2554   20.8841 N   0  0  0  0  0  0  0  0  0  0  0  0
    8.9876   11.9370   19.8757 O   0  0  0  0  0  0  0  0  0  0  0  0
    6.0167    8.4478   21.1089 C   0  0  0  0  0  0  0  0  0  0  0  0
   11.0002   10.8890   20.0262 C   0  0  0  0  0  0  0  0  0  0  0  0
    2.1721    7.7393   20.0315 O   0  0  0  0  0  0  0  0  0  0  0  0
    9.1107   10.3880   21.3769 N   0  0  0  0  0  0  0  0  0  0  0  0
    3.9102    9.2008   20.3124 C   0  0  0  0  0  0  0  0  0  0  0  0
   12.7292   10.9960   18.4597 C   0  0  0  0  0  0  0  0  0  0  0  0
    9.3798    6.6793   23.6625 C   0  0  0  0  0  0  0  0  0  0  0  0
   14.7425   10.0739   19.0802 O   0  0  0  0  0  0  0  0  0  0  0  0
    5.1894    9.4673   20.7118 C   0  0  0  0  0  0  0  0  0  0  0  0
    7.3773    8.8224   21.4870 C   0  0  0  0  0  0  0  0  0  0  0  0
    8.4391    6.6439   21.0235 C   0  0  0  0  0  0  0  0  0  0  0  0
    9.6494   11.1353   20.4167 C   0  0  0  0  0  0  0  0  0  0  0  0
    8.1431    7.6829   21.9046 C   0  0  0  0  0  0  0  0  0  0  0  0
    7.7796   10.1314   21.5115 N   0  0  0  0  0  0  0  0  0  0  0  0
    9.2768    5.6183   21.4437 C   0  0  0  0  0  0  0  0  0  0  0  0
    8.6315    7.7322   23.1768 C   0  0  0  0  0  0  0  0  0  0  0  0
   13.0537    9.9821   20.5781 C   0  0  0  0  0  0  0  0  0  0  0  0
   10.3850    4.6575   23.2386 O   0  0  0  0  0  0  0  0  0  0  0  0
    4.2069    6.8450   20.7994 C   0  0  0  0  0  0  0  0  0  0  0  0
    3.0726   10.1043   19.8522 O   0  0  0  0  0  0  0  0  0  0  0  0
    5.5057    7.1196   21.1155 C   0  0  0  0  0  0  0  0  0  0  0  0
    7.0367   11.0229   21.9948 O   0  0  0  0  0  0  0  0  0  0  0  0
  1  8  4  0
  1 12  4  0
  2  9  1  0
  2 11  4  0
  2 25  4  0
  3 12  4  0
  3 14  1  0
  3 23  4  0
  4 13  4  0
  4 21  4  0
  4 24  1  0
  5  8  4  0
  5 23  4  0
  6 18  2  0
  7 15  4  0
  7 16  1  0
  7 27  4  0
  8 18  1  0
 10 18  1  0
 10 20  1  0
 11 15  4  0
 11 26  1  0
 13 22  4  0
 16 19  1  0
 16 20  2  0
 17 19  4  0
 17 21  4  0
 19 22  4  0
 20 28  1  0
 25 27  4  0
M  END
$$$$

 Created by Python create_sdf_string function

 28 30  0  0  0  0  0  0  0  0999 V2000
   11.4592   11.2893   18.7941 C   0  0  0  0  0  0  0  0  0  0  0  0
    3.4202    7.9009   20.3866 C   0  0  0  0  0  0  0  0  0  0  0  0
   13.5280   10.3522   19.3586 C   0  0  0  0  0  0  0  0  0  0  0  0
    9.6923    5.6468   22.7891 C   0  0  0  0  0  0  0  0  0  0  0  0
   11.7756   10.2554   20.8841 N   0  0  0  0  0  0  0  0  0  0  0  0
    8.9876   11.9370   19.8757 O   0  0  0  0  0  0  0  0  0  0  0  0
    6.0167    8.4478   21.1089 C   0  0  0  0  0  0  0  0  0  0  0  0
   11.0002   10.8890   20.0262 C   0  0  0  0  0  0  0  0  0  0  0  0
    2.1721    7.7393   20.0315 O   0  0  0  0  0  0  0  0  0  0  0  0
    9.1107   10.3880   21.3769 N   0  0  0  0  0  0  0  0  0  0  0  0
    3.9102    9.2008   20.3124 C   0  0  0  0  0  0  0  0  0  0  0  0
   12.7292   10.9960   18.4597 C   0  0  0  0  0  0  0  0  0  0  0  0
    9.3798    6.6793   23.6625 C   0  0  0  0  0  0  0  0  0  0  0  0
   14.7425   10.0739   19.0802 O   0  0  0  0  0  0  0  0  0  0  0  0
    5.1894    9.4673   20.7118 C   0  0  0  0  0  0  0  0  0  0  0  0
    7.3773    8.8224   21.4870 C   0  0  0  0  0  0  0  0  0  0  0  0
    8.4391    6.6439   21.0235 C   0  0  0  0  0  0  0  0  0  0  0  0
    9.6494   11.1353   20.4167 C   0  0  0  0  0  0  0  0  0  0  0  0
    8.1431    7.6829   21.9046 C   0  0  0  0  0  0  0  0  0  0  0  0
    7.7796   10.1314   21.5115 N   0  0  0  0  0  0  0  0  0  0  0  0
    9.2768    5.6183   21.4437 C   0  0  0  0  0  0  0  0  0  0  0  0
    8.6315    7.7322   23.1768 C   0  0  0  0  0  0  0  0  0  0  0  0
   13.0537    9.9821   20.5781 C   0  0  0  0  0  0  0  0  0  0  0  0
   10.3850    4.6575   23.2386 O   0  0  0  0  0  0  0  0  0  0  0  0
    4.2069    6.8450   20.7994 C   0  0  0  0  0  0  0  0  0  0  0  0
    3.0726   10.1043   19.8522 O   0  0  0  0  0  0  0  0  0  0  0  0
    5.5057    7.1196   21.1155 C   0  0  0  0  0  0  0  0  0  0  0  0
    7.0367   11.0229   21.9948 O   0  0  0  0  0  0  0  0  0  0  0  0
  1  8  4  0
  1 12  4  0
  2  9  1  0
  2 11  4  0
  2 25  4  0
  3 12  4  0
  3 14  1  0
  3 23  4  0
  4 13  4  0
  4 21  4  0
  4 24  1  0
  5  8  4  0
  5 23  4  0
  6 18  2  0
  7 15  4  0
  7 16  1  0
  7 27  4  0
  8 18  1  0
 10 18  1  0
 10 20  1  0
 11 15  4  0
 11 26  1  0
 13 22  4  0
 16 19  1  0
 16 20  2  0
 17 19  4  0
 17 21  4  0
 19 22  4  0
 20 28  1  0
 25 27  4  0
M  END
$$$$

 Created by Python create_sdf_string function

 28 30  0  0  0  0  0  0  0  0999 V2000
   11.4592   11.2893   18.7941 C   0  0  0  0  0  0  0  0  0  0  0  0
    3.4202    7.9009   20.3866 C   0  0  0  0  0  0  0  0  0  0  0  0
   13.5280   10.3522   19.3586 C   0  0  0  0  0  0  0  0  0  0  0  0
    9.6923    5.6468   22.7891 C   0  0  0  0  0  0  0  0  0  0  0  0
   11.7756   10.2554   20.8841 N   0  0  0  0  0  0  0  0  0  0  0  0
    8.9876   11.9370   19.8757 O   0  0  0  0  0  0  0  0  0  0  0  0
    6.0167    8.4478   21.1089 C   0  0  0  0  0  0  0  0  0  0  0  0
   11.0002   10.8890   20.0262 C   0  0  0  0  0  0  0  0  0  0  0  0
    2.1721    7.7393   20.0315 O   0  0  0  0  0  0  0  0  0  0  0  0
    9.1107   10.3880   21.3769 N   0  0  0  0  0  0  0  0  0  0  0  0
    3.9102    9.2008   20.3124 C   0  0  0  0  0  0  0  0  0  0  0  0
   12.7292   10.9960   18.4597 C   0  0  0  0  0  0  0  0  0  0  0  0
    9.3798    6.6793   23.6625 C   0  0  0  0  0  0  0  0  0  0  0  0
   14.7425   10.0739   19.0802 O   0  0  0  0  0  0  0  0  0  0  0  0
    5.1894    9.4673   20.7118 C   0  0  0  0  0  0  0  0  0  0  0  0
    7.3773    8.8224   21.4870 C   0  0  0  0  0  0  0  0  0  0  0  0
    8.4391    6.6439   21.0235 C   0  0  0  0  0  0  0  0  0  0  0  0
    9.6494   11.1353   20.4167 C   0  0  0  0  0  0  0  0  0  0  0  0
    8.1431    7.6829   21.9046 C   0  0  0  0  0  0  0  0  0  0  0  0
    7.7796   10.1314   21.5115 N   0  0  0  0  0  0  0  0  0  0  0  0
    9.2768    5.6183   21.4437 C   0  0  0  0  0  0  0  0  0  0  0  0
    8.6315    7.7322   23.1768 C   0  0  0  0  0  0  0  0  0  0  0  0
   13.0537    9.9821   20.5781 C   0  0  0  0  0  0  0  0  0  0  0  0
   10.3850    4.6575   23.2386 O   0  0  0  0  0  0  0  0  0  0  0  0
    4.2069    6.8450   20.7994 C   0  0  0  0  0  0  0  0  0  0  0  0
    3.0726   10.1043   19.8522 O   0  0  0  0  0  0  0  0  0  0  0  0
    5.5057    7.1196   21.1155 C   0  0  0  0  0  0  0  0  0  0  0  0
    7.0367   11.0229   21.9948 O   0  0  0  0  0  0  0  0  0  0  0  0
  1  8  4  0
  1 12  4  0
  2  9  1  0
  2 11  4  0
  2 25  4  0
  3 12  4  0
  3 14  1  0
  3 23  4  0
  4 13  4  0
  4 21  4  0
  4 24  1  0
  5  8  4  0
  5 23  4  0
  6 18  2  0
  7 15  4  0
  7 16  1  0
  7 27  4  0
  8 18  1  0
 10 18  1  0
 10 20  1  0
 11 15  4  0
 11 26  1  0
 13 22  4  0
 16 19  1  0
 16 20  2  0
 17 19  4  0
 17 21  4  0
 19 22  4  0
 20 28  1  0
 25 27  4  0
M  END
$$$$

 Created by Python create_sdf_string function

 28 30  0  0  0  0  0  0  0  0999 V2000
   11.4592   11.2893   18.7941 C   0  0  0  0  0  0  0  0  0  0  0  0
    3.4202    7.9009   20.3866 C   0  0  0  0  0  0  0  0  0  0  0  0
   13.5280   10.3522   19.3586 C   0  0  0  0  0  0  0  0  0  0  0  0
    9.6923    5.6468   22.7891 C   0  0  0  0  0  0  0  0  0  0  0  0
   11.7756   10.2554   20.8841 N   0  0  0  0  0  0  0  0  0  0  0  0
    8.9876   11.9370   19.8757 O   0  0  0  0  0  0  0  0  0  0  0  0
    6.0167    8.4478   21.1089 C   0  0  0  0  0  0  0  0  0  0  0  0
   11.0002   10.8890   20.0262 C   0  0  0  0  0  0  0  0  0  0  0  0
    2.1721    7.7393   20.0315 O   0  0  0  0  0  0  0  0  0  0  0  0
    9.1107   10.3880   21.3769 N   0  0  0  0  0  0  0  0  0  0  0  0
    3.9102    9.2008   20.3124 C   0  0  0  0  0  0  0  0  0  0  0  0
   12.7292   10.9960   18.4597 C   0  0  0  0  0  0  0  0  0  0  0  0
    9.3798    6.6793   23.6625 C   0  0  0  0  0  0  0  0  0  0  0  0
   14.7425   10.0739   19.0802 O   0  0  0  0  0  0  0  0  0  0  0  0
    5.1894    9.4673   20.7118 C   0  0  0  0  0  0  0  0  0  0  0  0
    7.3773    8.8224   21.4870 C   0  0  0  0  0  0  0  0  0  0  0  0
    8.4391    6.6439   21.0235 C   0  0  0  0  0  0  0  0  0  0  0  0
    9.6494   11.1353   20.4167 C   0  0  0  0  0  0  0  0  0  0  0  0
    8.1431    7.6829   21.9046 C   0  0  0  0  0  0  0  0  0  0  0  0
    7.7796   10.1314   21.5115 N   0  0  0  0  0  0  0  0  0  0  0  0
    9.2768    5.6183   21.4437 C   0  0  0  0  0  0  0  0  0  0  0  0
    8.6315    7.7322   23.1768 C   0  0  0  0  0  0  0  0  0  0  0  0
   13.0537    9.9821   20.5781 C   0  0  0  0  0  0  0  0  0  0  0  0
   10.3850    4.6575   23.2386 O   0  0  0  0  0  0  0  0  0  0  0  0
    4.2069    6.8450   20.7994 C   0  0  0  0  0  0  0  0  0  0  0  0
    3.0726   10.1043   19.8522 O   0  0  0  0  0  0  0  0  0  0  0  0
    5.5057    7.1196   21.1155 C   0  0  0  0  0  0  0  0  0  0  0  0
    7.0367   11.0229   21.9948 O   0  0  0  0  0  0  0  0  0  0  0  0
  1  8  4  0
  1 12  4  0
  2  9  1  0
  2 11  4  0
  2 25  4  0
  3 12  4  0
  3 14  1  0
  3 23  4  0
  4 13  4  0
  4 21  4  0
  4 24  1  0
  5  8  4  0
  5 23  4  0
  6 18  2  0
  7 15  4  0
  7 16  1  0
  7 27  4  0
  8 18  1  0
 10 18  1  0
 10 20  1  0
 11 15  4  0
 11 26  1  0
 13 22  4  0
 16 19  1  0
 16 20  2  0
 17 19  4  0
 17 21  4  0
 19 22  4  0
 20 28  1  0
 25 27  4  0
M  END
$$$$

 Created by Python create_sdf_string function

 28 30  0  0  0  0  0  0  0  0999 V2000
   11.4592   11.2893   18.7941 C   0  0  0  0  0  0  0  0  0  0  0  0
    3.4202    7.9009   20.3866 C   0  0  0  0  0  0  0  0  0  0  0  0
   13.5280   10.3522   19.3586 C   0  0  0  0  0  0  0  0  0  0  0  0
    9.6923    5.6468   22.7891 C   0  0  0  0  0  0  0  0  0  0  0  0
   11.7756   10.2554   20.8841 N   0  0  0  0  0  0  0  0  0  0  0  0
    8.9876   11.9370   19.8757 O   0  0  0  0  0  0  0  0  0  0  0  0
    6.0167    8.4478   21.1089 C   0  0  0  0  0  0  0  0  0  0  0  0
   11.0002   10.8890   20.0262 C   0  0  0  0  0  0  0  0  0  0  0  0
    2.1721    7.7393   20.0315 O   0  0  0  0  0  0  0  0  0  0  0  0
    9.1107   10.3880   21.3769 N   0  0  0  0  0  0  0  0  0  0  0  0
    3.9102    9.2008   20.3124 C   0  0  0  0  0  0  0  0  0  0  0  0
   12.7292   10.9960   18.4597 C   0  0  0  0  0  0  0  0  0  0  0  0
    9.3798    6.6793   23.6625 C   0  0  0  0  0  0  0  0  0  0  0  0
   14.7425   10.0739   19.0802 O   0  0  0  0  0  0  0  0  0  0  0  0
    5.1894    9.4673   20.7118 C   0  0  0  0  0  0  0  0  0  0  0  0
    7.3773    8.8224   21.4870 C   0  0  0  0  0  0  0  0  0  0  0  0
    8.4391    6.6439   21.0235 C   0  0  0  0  0  0  0  0  0  0  0  0
    9.6494   11.1353   20.4167 C   0  0  0  0  0  0  0  0  0  0  0  0
    8.1431    7.6829   21.9046 C   0  0  0  0  0  0  0  0  0  0  0  0
    7.7796   10.1314   21.5115 N   0  0  0  0  0  0  0  0  0  0  0  0
    9.2768    5.6183   21.4437 C   0  0  0  0  0  0  0  0  0  0  0  0
    8.6315    7.7322   23.1768 C   0  0  0  0  0  0  0  0  0  0  0  0
   13.0537    9.9821   20.5781 C   0  0  0  0  0  0  0  0  0  0  0  0
   10.3850    4.6575   23.2386 O   0  0  0  0  0  0  0  0  0  0  0  0
    4.2069    6.8450   20.7994 C   0  0  0  0  0  0  0  0  0  0  0  0
    3.0726   10.1043   19.8522 O   0  0  0  0  0  0  0  0  0  0  0  0
    5.5057    7.1196   21.1155 C   0  0  0  0  0  0  0  0  0  0  0  0
    7.0367   11.0229   21.9948 O   0  0  0  0  0  0  0  0  0  0  0  0
  1  8  4  0
  1 12  4  0
  2  9  1  0
  2 11  4  0
  2 25  4  0
  3 12  4  0
  3 14  1  0
  3 23  4  0
  4 13  4  0
  4 21  4  0
  4 24  1  0
  5  8  4  0
  5 23  4  0
  6 18  2  0
  7 15  4  0
  7 16  1  0
  7 27  4  0
  8 18  1  0
 10 18  1  0
 10 20  1  0
 11 15  4  0
 11 26  1  0
 13 22  4  0
 16 19  1  0
 16 20  2  0
 17 19  4  0
 17 21  4  0
 19 22  4  0
 20 28  1  0
 25 27  4  0
M  END
$$$$

 Created by Python create_sdf_string function

 28 30  0  0  0  0  0  0  0  0999 V2000
   11.4592   11.2893   18.7941 C   0  0  0  0  0  0  0  0  0  0  0  0
    3.4202    7.9009   20.3866 C   0  0  0  0  0  0  0  0  0  0  0  0
   13.5280   10.3522   19.3586 C   0  0  0  0  0  0  0  0  0  0  0  0
    9.6923    5.6468   22.7891 C   0  0  0  0  0  0  0  0  0  0  0  0
   11.7756   10.2554   20.8841 N   0  0  0  0  0  0  0  0  0  0  0  0
    8.9876   11.9370   19.8757 O   0  0  0  0  0  0  0  0  0  0  0  0
    6.0167    8.4478   21.1089 C   0  0  0  0  0  0  0  0  0  0  0  0
   11.0002   10.8890   20.0262 C   0  0  0  0  0  0  0  0  0  0  0  0
    2.1721    7.7393   20.0315 O   0  0  0  0  0  0  0  0  0  0  0  0
    9.1107   10.3880   21.3769 N   0  0  0  0  0  0  0  0  0  0  0  0
    3.9102    9.2008   20.3124 C   0  0  0  0  0  0  0  0  0  0  0  0
   12.7292   10.9960   18.4597 C   0  0  0  0  0  0  0  0  0  0  0  0
    9.3798    6.6793   23.6625 C   0  0  0  0  0  0  0  0  0  0  0  0
   14.7425   10.0739   19.0802 O   0  0  0  0  0  0  0  0  0  0  0  0
    5.1894    9.4673   20.7118 C   0  0  0  0  0  0  0  0  0  0  0  0
    7.3773    8.8224   21.4870 C   0  0  0  0  0  0  0  0  0  0  0  0
    8.4391    6.6439   21.0235 C   0  0  0  0  0  0  0  0  0  0  0  0
    9.6494   11.1353   20.4167 C   0  0  0  0  0  0  0  0  0  0  0  0
    8.1431    7.6829   21.9046 C   0  0  0  0  0  0  0  0  0  0  0  0
    7.7796   10.1314   21.5115 N   0  0  0  0  0  0  0  0  0  0  0  0
    9.2768    5.6183   21.4437 C   0  0  0  0  0  0  0  0  0  0  0  0
    8.6315    7.7322   23.1768 C   0  0  0  0  0  0  0  0  0  0  0  0
   13.0537    9.9821   20.5781 C   0  0  0  0  0  0  0  0  0  0  0  0
   10.3850    4.6575   23.2386 O   0  0  0  0  0  0  0  0  0  0  0  0
    4.2069    6.8450   20.7994 C   0  0  0  0  0  0  0  0  0  0  0  0
    3.0726   10.1043   19.8522 O   0  0  0  0  0  0  0  0  0  0  0  0
    5.5057    7.1196   21.1155 C   0  0  0  0  0  0  0  0  0  0  0  0
    7.0367   11.0229   21.9948 O   0  0  0  0  0  0  0  0  0  0  0  0
  1  8  4  0
  1 12  4  0
  2  9  1  0
  2 11  4  0
  2 25  4  0
  3 12  4  0
  3 14  1  0
  3 23  4  0
  4 13  4  0
  4 21  4  0
  4 24  1  0
  5  8  4  0
  5 23  4  0
  6 18  2  0
  7 15  4  0
  7 16  1  0
  7 27  4  0
  8 18  1  0
 10 18  1  0
 10 20  1  0
 11 15  4  0
 11 26  1  0
 13 22  4  0
 16 19  1  0
 16 20  2  0
 17 19  4  0
 17 21  4  0
 19 22  4  0
 20 28  1  0
 25 27  4  0
M  END
$$$$

 Created by Python create_sdf_string function

 28 30  0  0  0  0  0  0  0  0999 V2000
   11.4592   11.2893   18.7941 C   0  0  0  0  0  0  0  0  0  0  0  0
    3.4202    7.9009   20.3866 C   0  0  0  0  0  0  0  0  0  0  0  0
   13.5280   10.3522   19.3586 C   0  0  0  0  0  0  0  0  0  0  0  0
    9.6923    5.6468   22.7891 C   0  0  0  0  0  0  0  0  0  0  0  0
   11.7756   10.2554   20.8841 N   0  0  0  0  0  0  0  0  0  0  0  0
    8.9876   11.9370   19.8757 O   0  0  0  0  0  0  0  0  0  0  0  0
    6.0167    8.4478   21.1089 C   0  0  0  0  0  0  0  0  0  0  0  0
   11.0002   10.8890   20.0262 C   0  0  0  0  0  0  0  0  0  0  0  0
    2.1721    7.7393   20.0315 O   0  0  0  0  0  0  0  0  0  0  0  0
    9.1107   10.3880   21.3769 N   0  0  0  0  0  0  0  0  0  0  0  0
    3.9102    9.2008   20.3124 C   0  0  0  0  0  0  0  0  0  0  0  0
   12.7292   10.9960   18.4597 C   0  0  0  0  0  0  0  0  0  0  0  0
    9.3798    6.6793   23.6625 C   0  0  0  0  0  0  0  0  0  0  0  0
   14.7425   10.0739   19.0802 O   0  0  0  0  0  0  0  0  0  0  0  0
    5.1894    9.4673   20.7118 C   0  0  0  0  0  0  0  0  0  0  0  0
    7.3773    8.8224   21.4870 C   0  0  0  0  0  0  0  0  0  0  0  0
    8.4391    6.6439   21.0235 C   0  0  0  0  0  0  0  0  0  0  0  0
    9.6494   11.1353   20.4167 C   0  0  0  0  0  0  0  0  0  0  0  0
    8.1431    7.6829   21.9046 C   0  0  0  0  0  0  0  0  0  0  0  0
    7.7796   10.1314   21.5115 N   0  0  0  0  0  0  0  0  0  0  0  0
    9.2768    5.6183   21.4437 C   0  0  0  0  0  0  0  0  0  0  0  0
    8.6315    7.7322   23.1768 C   0  0  0  0  0  0  0  0  0  0  0  0
   13.0537    9.9821   20.5781 C   0  0  0  0  0  0  0  0  0  0  0  0
   10.3850    4.6575   23.2386 O   0  0  0  0  0  0  0  0  0  0  0  0
    4.2069    6.8450   20.7994 C   0  0  0  0  0  0  0  0  0  0  0  0
    3.0726   10.1043   19.8522 O   0  0  0  0  0  0  0  0  0  0  0  0
    5.5057    7.1196   21.1155 C   0  0  0  0  0  0  0  0  0  0  0  0
    7.0367   11.0229   21.9948 O   0  0  0  0  0  0  0  0  0  0  0  0
  1  8  4  0
  1 12  4  0
  2  9  1  0
  2 11  4  0
  2 25  4  0
  3 12  4  0
  3 14  1  0
  3 23  4  0
  4 13  4  0
  4 21  4  0
  4 24  1  0
  5  8  4  0
  5 23  4  0
  6 18  2  0
  7 15  4  0
  7 16  1  0
  7 27  4  0
  8 18  1  0
 10 18  1  0
 10 20  1  0
 11 15  4  0
 11 26  1  0
 13 22  4  0
 16 19  1  0
 16 20  2  0
 17 19  4  0
 17 21  4  0
 19 22  4  0
 20 28  1  0
 25 27  4  0
M  END
$$$$

 Created by Python create_sdf_string function

 28 30  0  0  0  0  0  0  0  0999 V2000
   11.4592   11.2893   18.7941 C   0  0  0  0  0  0  0  0  0  0  0  0
    3.4202    7.9009   20.3866 C   0  0  0  0  0  0  0  0  0  0  0  0
   13.5280   10.3522   19.3586 C   0  0  0  0  0  0  0  0  0  0  0  0
    9.6923    5.6468   22.7891 C   0  0  0  0  0  0  0  0  0  0  0  0
   11.7756   10.2554   20.8841 N   0  0  0  0  0  0  0  0  0  0  0  0
    8.9876   11.9370   19.8757 O   0  0  0  0  0  0  0  0  0  0  0  0
    6.0167    8.4478   21.1089 C   0  0  0  0  0  0  0  0  0  0  0  0
   11.0002   10.8890   20.0262 C   0  0  0  0  0  0  0  0  0  0  0  0
    2.1721    7.7393   20.0315 O   0  0  0  0  0  0  0  0  0  0  0  0
    9.1107   10.3880   21.3769 N   0  0  0  0  0  0  0  0  0  0  0  0
    3.9102    9.2008   20.3124 C   0  0  0  0  0  0  0  0  0  0  0  0
   12.7292   10.9960   18.4597 C   0  0  0  0  0  0  0  0  0  0  0  0
    9.3798    6.6793   23.6625 C   0  0  0  0  0  0  0  0  0  0  0  0
   14.7425   10.0739   19.0802 O   0  0  0  0  0  0  0  0  0  0  0  0
    5.1894    9.4673   20.7118 C   0  0  0  0  0  0  0  0  0  0  0  0
    7.3773    8.8224   21.4870 C   0  0  0  0  0  0  0  0  0  0  0  0
    8.4391    6.6439   21.0235 C   0  0  0  0  0  0  0  0  0  0  0  0
    9.6494   11.1353   20.4167 C   0  0  0  0  0  0  0  0  0  0  0  0
    8.1431    7.6829   21.9046 C   0  0  0  0  0  0  0  0  0  0  0  0
    7.7796   10.1314   21.5115 N   0  0  0  0  0  0  0  0  0  0  0  0
    9.2768    5.6183   21.4437 C   0  0  0  0  0  0  0  0  0  0  0  0
    8.6315    7.7322   23.1768 C   0  0  0  0  0  0  0  0  0  0  0  0
   13.0537    9.9821   20.5781 C   0  0  0  0  0  0  0  0  0  0  0  0
   10.3850    4.6575   23.2386 O   0  0  0  0  0  0  0  0  0  0  0  0
    4.2069    6.8450   20.7994 C   0  0  0  0  0  0  0  0  0  0  0  0
    3.0726   10.1043   19.8522 O   0  0  0  0  0  0  0  0  0  0  0  0
    5.5057    7.1196   21.1155 C   0  0  0  0  0  0  0  0  0  0  0  0
    7.0367   11.0229   21.9948 O   0  0  0  0  0  0  0  0  0  0  0  0
  1  8  4  0
  1 12  4  0
  2  9  1  0
  2 11  4  0
  2 25  4  0
  3 12  4  0
  3 14  1  0
  3 23  4  0
  4 13  4  0
  4 21  4  0
  4 24  1  0
  5  8  4  0
  5 23  4  0
  6 18  2  0
  7 15  4  0
  7 16  1  0
  7 27  4  0
  8 18  1  0
 10 18  1  0
 10 20  1  0
 11 15  4  0
 11 26  1  0
 13 22  4  0
 16 19  1  0
 16 20  2  0
 17 19  4  0
 17 21  4  0
 19 22  4  0
 20 28  1  0
 25 27  4  0
M  END
$$$$

 Created by Python create_sdf_string function

 28 30  0  0  0  0  0  0  0  0999 V2000
   11.4592   11.2893   18.7941 C   0  0  0  0  0  0  0  0  0  0  0  0
    3.4202    7.9009   20.3866 C   0  0  0  0  0  0  0  0  0  0  0  0
   13.5280   10.3522   19.3586 C   0  0  0  0  0  0  0  0  0  0  0  0
    9.6923    5.6468   22.7891 C   0  0  0  0  0  0  0  0  0  0  0  0
   11.7756   10.2554   20.8841 N   0  0  0  0  0  0  0  0  0  0  0  0
    8.9876   11.9370   19.8757 O   0  0  0  0  0  0  0  0  0  0  0  0
    6.0167    8.4478   21.1089 C   0  0  0  0  0  0  0  0  0  0  0  0
   11.0002   10.8890   20.0262 C   0  0  0  0  0  0  0  0  0  0  0  0
    2.1721    7.7393   20.0315 O   0  0  0  0  0  0  0  0  0  0  0  0
    9.1107   10.3880   21.3769 N   0  0  0  0  0  0  0  0  0  0  0  0
    3.9102    9.2008   20.3124 C   0  0  0  0  0  0  0  0  0  0  0  0
   12.7292   10.9960   18.4597 C   0  0  0  0  0  0  0  0  0  0  0  0
    9.3798    6.6793   23.6625 C   0  0  0  0  0  0  0  0  0  0  0  0
   14.7425   10.0739   19.0802 O   0  0  0  0  0  0  0  0  0  0  0  0
    5.1894    9.4673   20.7118 C   0  0  0  0  0  0  0  0  0  0  0  0
    7.3773    8.8224   21.4870 C   0  0  0  0  0  0  0  0  0  0  0  0
    8.4391    6.6439   21.0235 C   0  0  0  0  0  0  0  0  0  0  0  0
    9.6494   11.1353   20.4167 C   0  0  0  0  0  0  0  0  0  0  0  0
    8.1431    7.6829   21.9046 C   0  0  0  0  0  0  0  0  0  0  0  0
    7.7796   10.1314   21.5115 N   0  0  0  0  0  0  0  0  0  0  0  0
    9.2768    5.6183   21.4437 C   0  0  0  0  0  0  0  0  0  0  0  0
    8.6315    7.7322   23.1768 C   0  0  0  0  0  0  0  0  0  0  0  0
   13.0537    9.9821   20.5781 C   0  0  0  0  0  0  0  0  0  0  0  0
   10.3850    4.6575   23.2386 O   0  0  0  0  0  0  0  0  0  0  0  0
    4.2069    6.8450   20.7994 C   0  0  0  0  0  0  0  0  0  0  0  0
    3.0726   10.1043   19.8522 O   0  0  0  0  0  0  0  0  0  0  0  0
    5.5057    7.1196   21.1155 C   0  0  0  0  0  0  0  0  0  0  0  0
    7.0367   11.0229   21.9948 O   0  0  0  0  0  0  0  0  0  0  0  0
  1  8  4  0
  1 12  4  0
  2  9  1  0
  2 11  4  0
  2 25  4  0
  3 12  4  0
  3 14  1  0
  3 23  4  0
  4 13  4  0
  4 21  4  0
  4 24  1  0
  5  8  4  0
  5 23  4  0
  6 18  2  0
  7 15  4  0
  7 16  1  0
  7 27  4  0
  8 18  1  0
 10 18  1  0
 10 20  1  0
 11 15  4  0
 11 26  1  0
 13 22  4  0
 16 19  1  0
 16 20  2  0
 17 19  4  0
 17 21  4  0
 19 22  4  0
 20 28  1  0
 25 27  4  0
M  END
$$$$

 Created by Python create_sdf_string function

 28 30  0  0  0  0  0  0  0  0999 V2000
   11.4592   11.2893   18.7941 C   0  0  0  0  0  0  0  0  0  0  0  0
    3.4202    7.9009   20.3866 C   0  0  0  0  0  0  0  0  0  0  0  0
   13.5280   10.3522   19.3586 C   0  0  0  0  0  0  0  0  0  0  0  0
    9.6923    5.6468   22.7891 C   0  0  0  0  0  0  0  0  0  0  0  0
   11.7756   10.2554   20.8841 N   0  0  0  0  0  0  0  0  0  0  0  0
    8.9876   11.9370   19.8757 O   0  0  0  0  0  0  0  0  0  0  0  0
    6.0167    8.4478   21.1089 C   0  0  0  0  0  0  0  0  0  0  0  0
   11.0002   10.8890   20.0262 C   0  0  0  0  0  0  0  0  0  0  0  0
    2.1721    7.7393   20.0315 O   0  0  0  0  0  0  0  0  0  0  0  0
    9.1107   10.3880   21.3769 N   0  0  0  0  0  0  0  0  0  0  0  0
    3.9102    9.2008   20.3124 C   0  0  0  0  0  0  0  0  0  0  0  0
   12.7292   10.9960   18.4597 C   0  0  0  0  0  0  0  0  0  0  0  0
    9.3798    6.6793   23.6625 C   0  0  0  0  0  0  0  0  0  0  0  0
   14.7425   10.0739   19.0802 O   0  0  0  0  0  0  0  0  0  0  0  0
    5.1894    9.4673   20.7118 C   0  0  0  0  0  0  0  0  0  0  0  0
    7.3773    8.8224   21.4870 C   0  0  0  0  0  0  0  0  0  0  0  0
    8.4391    6.6439   21.0235 C   0  0  0  0  0  0  0  0  0  0  0  0
    9.6494   11.1353   20.4167 C   0  0  0  0  0  0  0  0  0  0  0  0
    8.1431    7.6829   21.9046 C   0  0  0  0  0  0  0  0  0  0  0  0
    7.7796   10.1314   21.5115 N   0  0  0  0  0  0  0  0  0  0  0  0
    9.2768    5.6183   21.4437 C   0  0  0  0  0  0  0  0  0  0  0  0
    8.6315    7.7322   23.1768 C   0  0  0  0  0  0  0  0  0  0  0  0
   13.0537    9.9821   20.5781 C   0  0  0  0  0  0  0  0  0  0  0  0
   10.3850    4.6575   23.2386 O   0  0  0  0  0  0  0  0  0  0  0  0
    4.2069    6.8450   20.7994 C   0  0  0  0  0  0  0  0  0  0  0  0
    3.0726   10.1043   19.8522 O   0  0  0  0  0  0  0  0  0  0  0  0
    5.5057    7.1196   21.1155 C   0  0  0  0  0  0  0  0  0  0  0  0
    7.0367   11.0229   21.9948 O   0  0  0  0  0  0  0  0  0  0  0  0
  1  8  4  0
  1 12  4  0
  2  9  1  0
  2 11  4  0
  2 25  4  0
  3 12  4  0
  3 14  1  0
  3 23  4  0
  4 13  4  0
  4 21  4  0
  4 24  1  0
  5  8  4  0
  5 23  4  0
  6 18  2  0
  7 15  4  0
  7 16  1  0
  7 27  4  0
  8 18  1  0
 10 18  1  0
 10 20  1  0
 11 15  4  0
 11 26  1  0
 13 22  4  0
 16 19  1  0
 16 20  2  0
 17 19  4  0
 17 21  4  0
 19 22  4  0
 20 28  1  0
 25 27  4  0
M  END
$$$$

 Created by Python create_sdf_string function

 28 30  0  0  0  0  0  0  0  0999 V2000
   11.4592   11.2893   18.7941 C   0  0  0  0  0  0  0  0  0  0  0  0
    3.4202    7.9009   20.3866 C   0  0  0  0  0  0  0  0  0  0  0  0
   13.5280   10.3522   19.3586 C   0  0  0  0  0  0  0  0  0  0  0  0
    9.6923    5.6468   22.7891 C   0  0  0  0  0  0  0  0  0  0  0  0
   11.7756   10.2554   20.8841 N   0  0  0  0  0  0  0  0  0  0  0  0
    8.9876   11.9370   19.8757 O   0  0  0  0  0  0  0  0  0  0  0  0
    6.0167    8.4478   21.1089 C   0  0  0  0  0  0  0  0  0  0  0  0
   11.0002   10.8890   20.0262 C   0  0  0  0  0  0  0  0  0  0  0  0
    2.1721    7.7393   20.0315 O   0  0  0  0  0  0  0  0  0  0  0  0
    9.1107   10.3880   21.3769 N   0  0  0  0  0  0  0  0  0  0  0  0
    3.9102    9.2008   20.3124 C   0  0  0  0  0  0  0  0  0  0  0  0
   12.7292   10.9960   18.4597 C   0  0  0  0  0  0  0  0  0  0  0  0
    9.3798    6.6793   23.6625 C   0  0  0  0  0  0  0  0  0  0  0  0
   14.7425   10.0739   19.0802 O   0  0  0  0  0  0  0  0  0  0  0  0
    5.1894    9.4673   20.7118 C   0  0  0  0  0  0  0  0  0  0  0  0
    7.3773    8.8224   21.4870 C   0  0  0  0  0  0  0  0  0  0  0  0
    8.4391    6.6439   21.0235 C   0  0  0  0  0  0  0  0  0  0  0  0
    9.6494   11.1353   20.4167 C   0  0  0  0  0  0  0  0  0  0  0  0
    8.1431    7.6829   21.9046 C   0  0  0  0  0  0  0  0  0  0  0  0
    7.7796   10.1314   21.5115 N   0  0  0  0  0  0  0  0  0  0  0  0
    9.2768    5.6183   21.4437 C   0  0  0  0  0  0  0  0  0  0  0  0
    8.6315    7.7322   23.1768 C   0  0  0  0  0  0  0  0  0  0  0  0
   13.0537    9.9821   20.5781 C   0  0  0  0  0  0  0  0  0  0  0  0
   10.3850    4.6575   23.2386 O   0  0  0  0  0  0  0  0  0  0  0  0
    4.2069    6.8450   20.7994 C   0  0  0  0  0  0  0  0  0  0  0  0
    3.0726   10.1043   19.8522 O   0  0  0  0  0  0  0  0  0  0  0  0
    5.5057    7.1196   21.1155 C   0  0  0  0  0  0  0  0  0  0  0  0
    7.0367   11.0229   21.9948 O   0  0  0  0  0  0  0  0  0  0  0  0
  1  8  4  0
  1 12  4  0
  2  9  1  0
  2 11  4  0
  2 25  4  0
  3 12  4  0
  3 14  1  0
  3 23  4  0
  4 13  4  0
  4 21  4  0
  4 24  1  0
  5  8  4  0
  5 23  4  0
  6 18  2  0
  7 15  4  0
  7 16  1  0
  7 27  4  0
  8 18  1  0
 10 18  1  0
 10 20  1  0
 11 15  4  0
 11 26  1  0
 13 22  4  0
 16 19  1  0
 16 20  2  0
 17 19  4  0
 17 21  4  0
 19 22  4  0
 20 28  1  0
 25 27  4  0
M  END
$$$$

 Created by Python create_sdf_string function

 28 30  0  0  0  0  0  0  0  0999 V2000
   11.4592   11.2893   18.7941 C   0  0  0  0  0  0  0  0  0  0  0  0
    3.4202    7.9009   20.3866 C   0  0  0  0  0  0  0  0  0  0  0  0
   13.5280   10.3522   19.3586 C   0  0  0  0  0  0  0  0  0  0  0  0
    9.6923    5.6468   22.7891 C   0  0  0  0  0  0  0  0  0  0  0  0
   11.7756   10.2554   20.8841 N   0  0  0  0  0  0  0  0  0  0  0  0
    8.9876   11.9370   19.8757 O   0  0  0  0  0  0  0  0  0  0  0  0
    6.0167    8.4478   21.1089 C   0  0  0  0  0  0  0  0  0  0  0  0
   11.0002   10.8890   20.0262 C   0  0  0  0  0  0  0  0  0  0  0  0
    2.1721    7.7393   20.0315 O   0  0  0  0  0  0  0  0  0  0  0  0
    9.1107   10.3880   21.3769 N   0  0  0  0  0  0  0  0  0  0  0  0
    3.9102    9.2008   20.3124 C   0  0  0  0  0  0  0  0  0  0  0  0
   12.7292   10.9960   18.4597 C   0  0  0  0  0  0  0  0  0  0  0  0
    9.3798    6.6793   23.6625 C   0  0  0  0  0  0  0  0  0  0  0  0
   14.7425   10.0739   19.0802 O   0  0  0  0  0  0  0  0  0  0  0  0
    5.1894    9.4673   20.7118 C   0  0  0  0  0  0  0  0  0  0  0  0
    7.3773    8.8224   21.4870 C   0  0  0  0  0  0  0  0  0  0  0  0
    8.4391    6.6439   21.0235 C   0  0  0  0  0  0  0  0  0  0  0  0
    9.6494   11.1353   20.4167 C   0  0  0  0  0  0  0  0  0  0  0  0
    8.1431    7.6829   21.9046 C   0  0  0  0  0  0  0  0  0  0  0  0
    7.7796   10.1314   21.5115 N   0  0  0  0  0  0  0  0  0  0  0  0
    9.2768    5.6183   21.4437 C   0  0  0  0  0  0  0  0  0  0  0  0
    8.6315    7.7322   23.1768 C   0  0  0  0  0  0  0  0  0  0  0  0
   13.0537    9.9821   20.5781 C   0  0  0  0  0  0  0  0  0  0  0  0
   10.3850    4.6575   23.2386 O   0  0  0  0  0  0  0  0  0  0  0  0
    4.2069    6.8450   20.7994 C   0  0  0  0  0  0  0  0  0  0  0  0
    3.0726   10.1043   19.8522 O   0  0  0  0  0  0  0  0  0  0  0  0
    5.5057    7.1196   21.1155 C   0  0  0  0  0  0  0  0  0  0  0  0
    7.0367   11.0229   21.9948 O   0  0  0  0  0  0  0  0  0  0  0  0
  1  8  4  0
  1 12  4  0
  2  9  1  0
  2 11  4  0
  2 25  4  0
  3 12  4  0
  3 14  1  0
  3 23  4  0
  4 13  4  0
  4 21  4  0
  4 24  1  0
  5  8  4  0
  5 23  4  0
  6 18  2  0
  7 15  4  0
  7 16  1  0
  7 27  4  0
  8 18  1  0
 10 18  1  0
 10 20  1  0
 11 15  4  0
 11 26  1  0
 13 22  4  0
 16 19  1  0
 16 20  2  0
 17 19  4  0
 17 21  4  0
 19 22  4  0
 20 28  1  0
 25 27  4  0
M  END
$$$$

 Created by Python create_sdf_string function

 28 30  0  0  0  0  0  0  0  0999 V2000
   11.4592   11.2893   18.7941 C   0  0  0  0  0  0  0  0  0  0  0  0
    3.4202    7.9009   20.3866 C   0  0  0  0  0  0  0  0  0  0  0  0
   13.5280   10.3522   19.3586 C   0  0  0  0  0  0  0  0  0  0  0  0
    9.6923    5.6468   22.7891 C   0  0  0  0  0  0  0  0  0  0  0  0
   11.7756   10.2554   20.8841 N   0  0  0  0  0  0  0  0  0  0  0  0
    8.9876   11.9370   19.8757 O   0  0  0  0  0  0  0  0  0  0  0  0
    6.0167    8.4478   21.1089 C   0  0  0  0  0  0  0  0  0  0  0  0
   11.0002   10.8890   20.0262 C   0  0  0  0  0  0  0  0  0  0  0  0
    2.1721    7.7393   20.0315 O   0  0  0  0  0  0  0  0  0  0  0  0
    9.1107   10.3880   21.3769 N   0  0  0  0  0  0  0  0  0  0  0  0
    3.9102    9.2008   20.3124 C   0  0  0  0  0  0  0  0  0  0  0  0
   12.7292   10.9960   18.4597 C   0  0  0  0  0  0  0  0  0  0  0  0
    9.3798    6.6793   23.6625 C   0  0  0  0  0  0  0  0  0  0  0  0
   14.7425   10.0739   19.0802 O   0  0  0  0  0  0  0  0  0  0  0  0
    5.1894    9.4673   20.7118 C   0  0  0  0  0  0  0  0  0  0  0  0
    7.3773    8.8224   21.4870 C   0  0  0  0  0  0  0  0  0  0  0  0
    8.4391    6.6439   21.0235 C   0  0  0  0  0  0  0  0  0  0  0  0
    9.6494   11.1353   20.4167 C   0  0  0  0  0  0  0  0  0  0  0  0
    8.1431    7.6829   21.9046 C   0  0  0  0  0  0  0  0  0  0  0  0
    7.7796   10.1314   21.5115 N   0  0  0  0  0  0  0  0  0  0  0  0
    9.2768    5.6183   21.4437 C   0  0  0  0  0  0  0  0  0  0  0  0
    8.6315    7.7322   23.1768 C   0  0  0  0  0  0  0  0  0  0  0  0
   13.0537    9.9821   20.5781 C   0  0  0  0  0  0  0  0  0  0  0  0
   10.3850    4.6575   23.2386 O   0  0  0  0  0  0  0  0  0  0  0  0
    4.2069    6.8450   20.7994 C   0  0  0  0  0  0  0  0  0  0  0  0
    3.0726   10.1043   19.8522 O   0  0  0  0  0  0  0  0  0  0  0  0
    5.5057    7.1196   21.1155 C   0  0  0  0  0  0  0  0  0  0  0  0
    7.0367   11.0229   21.9948 O   0  0  0  0  0  0  0  0  0  0  0  0
  1  8  4  0
  1 12  4  0
  2  9  1  0
  2 11  4  0
  2 25  4  0
  3 12  4  0
  3 14  1  0
  3 23  4  0
  4 13  4  0
  4 21  4  0
  4 24  1  0
  5  8  4  0
  5 23  4  0
  6 18  2  0
  7 15  4  0
  7 16  1  0
  7 27  4  0
  8 18  1  0
 10 18  1  0
 10 20  1  0
 11 15  4  0
 11 26  1  0
 13 22  4  0
 16 19  1  0
 16 20  2  0
 17 19  4  0
 17 21  4  0
 19 22  4  0
 20 28  1  0
 25 27  4  0
M  END
$$$$

 Created by Python create_sdf_string function

 28 30  0  0  0  0  0  0  0  0999 V2000
   11.4592   11.2893   18.7941 C   0  0  0  0  0  0  0  0  0  0  0  0
    3.4202    7.9009   20.3866 C   0  0  0  0  0  0  0  0  0  0  0  0
   13.5280   10.3522   19.3586 C   0  0  0  0  0  0  0  0  0  0  0  0
    9.6923    5.6468   22.7891 C   0  0  0  0  0  0  0  0  0  0  0  0
   11.7756   10.2554   20.8841 N   0  0  0  0  0  0  0  0  0  0  0  0
    8.9876   11.9370   19.8757 O   0  0  0  0  0  0  0  0  0  0  0  0
    6.0167    8.4478   21.1089 C   0  0  0  0  0  0  0  0  0  0  0  0
   11.0002   10.8890   20.0262 C   0  0  0  0  0  0  0  0  0  0  0  0
    2.1721    7.7393   20.0315 O   0  0  0  0  0  0  0  0  0  0  0  0
    9.1107   10.3880   21.3769 N   0  0  0  0  0  0  0  0  0  0  0  0
    3.9102    9.2008   20.3124 C   0  0  0  0  0  0  0  0  0  0  0  0
   12.7292   10.9960   18.4597 C   0  0  0  0  0  0  0  0  0  0  0  0
    9.3798    6.6793   23.6625 C   0  0  0  0  0  0  0  0  0  0  0  0
   14.7425   10.0739   19.0802 O   0  0  0  0  0  0  0  0  0  0  0  0
    5.1894    9.4673   20.7118 C   0  0  0  0  0  0  0  0  0  0  0  0
    7.3773    8.8224   21.4870 C   0  0  0  0  0  0  0  0  0  0  0  0
    8.4391    6.6439   21.0235 C   0  0  0  0  0  0  0  0  0  0  0  0
    9.6494   11.1353   20.4167 C   0  0  0  0  0  0  0  0  0  0  0  0
    8.1431    7.6829   21.9046 C   0  0  0  0  0  0  0  0  0  0  0  0
    7.7796   10.1314   21.5115 N   0  0  0  0  0  0  0  0  0  0  0  0
    9.2768    5.6183   21.4437 C   0  0  0  0  0  0  0  0  0  0  0  0
    8.6315    7.7322   23.1768 C   0  0  0  0  0  0  0  0  0  0  0  0
   13.0537    9.9821   20.5781 C   0  0  0  0  0  0  0  0  0  0  0  0
   10.3850    4.6575   23.2386 O   0  0  0  0  0  0  0  0  0  0  0  0
    4.2069    6.8450   20.7994 C   0  0  0  0  0  0  0  0  0  0  0  0
    3.0726   10.1043   19.8522 O   0  0  0  0  0  0  0  0  0  0  0  0
    5.5057    7.1196   21.1155 C   0  0  0  0  0  0  0  0  0  0  0  0
    7.0367   11.0229   21.9948 O   0  0  0  0  0  0  0  0  0  0  0  0
  1  8  4  0
  1 12  4  0
  2  9  1  0
  2 11  4  0
  2 25  4  0
  3 12  4  0
  3 14  1  0
  3 23  4  0
  4 13  4  0
  4 21  4  0
  4 24  1  0
  5  8  4  0
  5 23  4  0
  6 18  2  0
  7 15  4  0
  7 16  1  0
  7 27  4  0
  8 18  1  0
 10 18  1  0
 10 20  1  0
 11 15  4  0
 11 26  1  0
 13 22  4  0
 16 19  1  0
 16 20  2  0
 17 19  4  0
 17 21  4  0
 19 22  4  0
 20 28  1  0
 25 27  4  0
M  END
$$$$

 Created by Python create_sdf_string function

 28 30  0  0  0  0  0  0  0  0999 V2000
   11.4592   11.2893   18.7941 C   0  0  0  0  0  0  0  0  0  0  0  0
    3.4202    7.9009   20.3866 C   0  0  0  0  0  0  0  0  0  0  0  0
   13.5280   10.3522   19.3586 C   0  0  0  0  0  0  0  0  0  0  0  0
    9.6923    5.6468   22.7891 C   0  0  0  0  0  0  0  0  0  0  0  0
   11.7756   10.2554   20.8841 N   0  0  0  0  0  0  0  0  0  0  0  0
    8.9876   11.9370   19.8757 O   0  0  0  0  0  0  0  0  0  0  0  0
    6.0167    8.4478   21.1089 C   0  0  0  0  0  0  0  0  0  0  0  0
   11.0002   10.8890   20.0262 C   0  0  0  0  0  0  0  0  0  0  0  0
    2.1721    7.7393   20.0315 O   0  0  0  0  0  0  0  0  0  0  0  0
    9.1107   10.3880   21.3769 N   0  0  0  0  0  0  0  0  0  0  0  0
    3.9102    9.2008   20.3124 C   0  0  0  0  0  0  0  0  0  0  0  0
   12.7292   10.9960   18.4597 C   0  0  0  0  0  0  0  0  0  0  0  0
    9.3798    6.6793   23.6625 C   0  0  0  0  0  0  0  0  0  0  0  0
   14.7425   10.0739   19.0802 O   0  0  0  0  0  0  0  0  0  0  0  0
    5.1894    9.4673   20.7118 C   0  0  0  0  0  0  0  0  0  0  0  0
    7.3773    8.8224   21.4870 C   0  0  0  0  0  0  0  0  0  0  0  0
    8.4391    6.6439   21.0235 C   0  0  0  0  0  0  0  0  0  0  0  0
    9.6494   11.1353   20.4167 C   0  0  0  0  0  0  0  0  0  0  0  0
    8.1431    7.6829   21.9046 C   0  0  0  0  0  0  0  0  0  0  0  0
    7.7796   10.1314   21.5115 N   0  0  0  0  0  0  0  0  0  0  0  0
    9.2768    5.6183   21.4437 C   0  0  0  0  0  0  0  0  0  0  0  0
    8.6315    7.7322   23.1768 C   0  0  0  0  0  0  0  0  0  0  0  0
   13.0537    9.9821   20.5781 C   0  0  0  0  0  0  0  0  0  0  0  0
   10.3850    4.6575   23.2386 O   0  0  0  0  0  0  0  0  0  0  0  0
    4.2069    6.8450   20.7994 C   0  0  0  0  0  0  0  0  0  0  0  0
    3.0726   10.1043   19.8522 O   0  0  0  0  0  0  0  0  0  0  0  0
    5.5057    7.1196   21.1155 C   0  0  0  0  0  0  0  0  0  0  0  0
    7.0367   11.0229   21.9948 O   0  0  0  0  0  0  0  0  0  0  0  0
  1  8  4  0
  1 12  4  0
  2  9  1  0
  2 11  4  0
  2 25  4  0
  3 12  4  0
  3 14  1  0
  3 23  4  0
  4 13  4  0
  4 21  4  0
  4 24  1  0
  5  8  4  0
  5 23  4  0
  6 18  2  0
  7 15  4  0
  7 16  1  0
  7 27  4  0
  8 18  1  0
 10 18  1  0
 10 20  1  0
 11 15  4  0
 11 26  1  0
 13 22  4  0
 16 19  1  0
 16 20  2  0
 17 19  4  0
 17 21  4  0
 19 22  4  0
 20 28  1  0
 25 27  4  0
M  END
$$$$

 Created by Python create_sdf_string function

 28 30  0  0  0  0  0  0  0  0999 V2000
   11.4592   11.2893   18.7941 C   0  0  0  0  0  0  0  0  0  0  0  0
    3.4202    7.9009   20.3866 C   0  0  0  0  0  0  0  0  0  0  0  0
   13.5280   10.3522   19.3586 C   0  0  0  0  0  0  0  0  0  0  0  0
    9.6923    5.6468   22.7891 C   0  0  0  0  0  0  0  0  0  0  0  0
   11.7756   10.2554   20.8841 N   0  0  0  0  0  0  0  0  0  0  0  0
    8.9876   11.9370   19.8757 O   0  0  0  0  0  0  0  0  0  0  0  0
    6.0167    8.4478   21.1089 C   0  0  0  0  0  0  0  0  0  0  0  0
   11.0002   10.8890   20.0262 C   0  0  0  0  0  0  0  0  0  0  0  0
    2.1721    7.7393   20.0315 O   0  0  0  0  0  0  0  0  0  0  0  0
    9.1107   10.3880   21.3769 N   0  0  0  0  0  0  0  0  0  0  0  0
    3.9102    9.2008   20.3124 C   0  0  0  0  0  0  0  0  0  0  0  0
   12.7292   10.9960   18.4597 C   0  0  0  0  0  0  0  0  0  0  0  0
    9.3798    6.6793   23.6625 C   0  0  0  0  0  0  0  0  0  0  0  0
   14.7425   10.0739   19.0802 O   0  0  0  0  0  0  0  0  0  0  0  0
    5.1894    9.4673   20.7118 C   0  0  0  0  0  0  0  0  0  0  0  0
    7.3773    8.8224   21.4870 C   0  0  0  0  0  0  0  0  0  0  0  0
    8.4391    6.6439   21.0235 C   0  0  0  0  0  0  0  0  0  0  0  0
    9.6494   11.1353   20.4167 C   0  0  0  0  0  0  0  0  0  0  0  0
    8.1431    7.6829   21.9046 C   0  0  0  0  0  0  0  0  0  0  0  0
    7.7796   10.1314   21.5115 N   0  0  0  0  0  0  0  0  0  0  0  0
    9.2768    5.6183   21.4437 C   0  0  0  0  0  0  0  0  0  0  0  0
    8.6315    7.7322   23.1768 C   0  0  0  0  0  0  0  0  0  0  0  0
   13.0537    9.9821   20.5781 C   0  0  0  0  0  0  0  0  0  0  0  0
   10.3850    4.6575   23.2386 O   0  0  0  0  0  0  0  0  0  0  0  0
    4.2069    6.8450   20.7994 C   0  0  0  0  0  0  0  0  0  0  0  0
    3.0726   10.1043   19.8522 O   0  0  0  0  0  0  0  0  0  0  0  0
    5.5057    7.1196   21.1155 C   0  0  0  0  0  0  0  0  0  0  0  0
    7.0367   11.0229   21.9948 O   0  0  0  0  0  0  0  0  0  0  0  0
  1  8  4  0
  1 12  4  0
  2  9  1  0
  2 11  4  0
  2 25  4  0
  3 12  4  0
  3 14  1  0
  3 23  4  0
  4 13  4  0
  4 21  4  0
  4 24  1  0
  5  8  4  0
  5 23  4  0
  6 18  2  0
  7 15  4  0
  7 16  1  0
  7 27  4  0
  8 18  1  0
 10 18  1  0
 10 20  1  0
 11 15  4  0
 11 26  1  0
 13 22  4  0
 16 19  1  0
 16 20  2  0
 17 19  4  0
 17 21  4  0
 19 22  4  0
 20 28  1  0
 25 27  4  0
M  END
$$$$

 Created by Python create_sdf_string function

 28 30  0  0  0  0  0  0  0  0999 V2000
   11.4592   11.2893   18.7941 C   0  0  0  0  0  0  0  0  0  0  0  0
    3.4202    7.9009   20.3866 C   0  0  0  0  0  0  0  0  0  0  0  0
   13.5280   10.3522   19.3586 C   0  0  0  0  0  0  0  0  0  0  0  0
    9.6923    5.6468   22.7891 C   0  0  0  0  0  0  0  0  0  0  0  0
   11.7756   10.2554   20.8841 N   0  0  0  0  0  0  0  0  0  0  0  0
    8.9876   11.9370   19.8757 O   0  0  0  0  0  0  0  0  0  0  0  0
    6.0167    8.4478   21.1089 C   0  0  0  0  0  0  0  0  0  0  0  0
   11.0002   10.8890   20.0262 C   0  0  0  0  0  0  0  0  0  0  0  0
    2.1721    7.7393   20.0315 O   0  0  0  0  0  0  0  0  0  0  0  0
    9.1107   10.3880   21.3769 N   0  0  0  0  0  0  0  0  0  0  0  0
    3.9102    9.2008   20.3124 C   0  0  0  0  0  0  0  0  0  0  0  0
   12.7292   10.9960   18.4597 C   0  0  0  0  0  0  0  0  0  0  0  0
    9.3798    6.6793   23.6625 C   0  0  0  0  0  0  0  0  0  0  0  0
   14.7425   10.0739   19.0802 O   0  0  0  0  0  0  0  0  0  0  0  0
    5.1894    9.4673   20.7118 C   0  0  0  0  0  0  0  0  0  0  0  0
    7.3773    8.8224   21.4870 C   0  0  0  0  0  0  0  0  0  0  0  0
    8.4391    6.6439   21.0235 C   0  0  0  0  0  0  0  0  0  0  0  0
    9.6494   11.1353   20.4167 C   0  0  0  0  0  0  0  0  0  0  0  0
    8.1431    7.6829   21.9046 C   0  0  0  0  0  0  0  0  0  0  0  0
    7.7796   10.1314   21.5115 N   0  0  0  0  0  0  0  0  0  0  0  0
    9.2768    5.6183   21.4437 C   0  0  0  0  0  0  0  0  0  0  0  0
    8.6315    7.7322   23.1768 C   0  0  0  0  0  0  0  0  0  0  0  0
   13.0537    9.9821   20.5781 C   0  0  0  0  0  0  0  0  0  0  0  0
   10.3850    4.6575   23.2386 O   0  0  0  0  0  0  0  0  0  0  0  0
    4.2069    6.8450   20.7994 C   0  0  0  0  0  0  0  0  0  0  0  0
    3.0726   10.1043   19.8522 O   0  0  0  0  0  0  0  0  0  0  0  0
    5.5057    7.1196   21.1155 C   0  0  0  0  0  0  0  0  0  0  0  0
    7.0367   11.0229   21.9948 O   0  0  0  0  0  0  0  0  0  0  0  0
  1  8  4  0
  1 12  4  0
  2  9  1  0
  2 11  4  0
  2 25  4  0
  3 12  4  0
  3 14  1  0
  3 23  4  0
  4 13  4  0
  4 21  4  0
  4 24  1  0
  5  8  4  0
  5 23  4  0
  6 18  2  0
  7 15  4  0
  7 16  1  0
  7 27  4  0
  8 18  1  0
 10 18  1  0
 10 20  1  0
 11 15  4  0
 11 26  1  0
 13 22  4  0
 16 19  1  0
 16 20  2  0
 17 19  4  0
 17 21  4  0
 19 22  4  0
 20 28  1  0
 25 27  4  0
M  END
$$$$

 Created by Python create_sdf_string function

 28 30  0  0  0  0  0  0  0  0999 V2000
   11.4592   11.2893   18.7941 C   0  0  0  0  0  0  0  0  0  0  0  0
    3.4202    7.9009   20.3866 C   0  0  0  0  0  0  0  0  0  0  0  0
   13.5280   10.3522   19.3586 C   0  0  0  0  0  0  0  0  0  0  0  0
    9.6923    5.6468   22.7891 C   0  0  0  0  0  0  0  0  0  0  0  0
   11.7756   10.2554   20.8841 N   0  0  0  0  0  0  0  0  0  0  0  0
    8.9876   11.9370   19.8757 O   0  0  0  0  0  0  0  0  0  0  0  0
    6.0167    8.4478   21.1089 C   0  0  0  0  0  0  0  0  0  0  0  0
   11.0002   10.8890   20.0262 C   0  0  0  0  0  0  0  0  0  0  0  0
    2.1721    7.7393   20.0315 O   0  0  0  0  0  0  0  0  0  0  0  0
    9.1107   10.3880   21.3769 N   0  0  0  0  0  0  0  0  0  0  0  0
    3.9102    9.2008   20.3124 C   0  0  0  0  0  0  0  0  0  0  0  0
   12.7292   10.9960   18.4597 C   0  0  0  0  0  0  0  0  0  0  0  0
    9.3798    6.6793   23.6625 C   0  0  0  0  0  0  0  0  0  0  0  0
   14.7425   10.0739   19.0802 O   0  0  0  0  0  0  0  0  0  0  0  0
    5.1894    9.4673   20.7118 C   0  0  0  0  0  0  0  0  0  0  0  0
    7.3773    8.8224   21.4870 C   0  0  0  0  0  0  0  0  0  0  0  0
    8.4391    6.6439   21.0235 C   0  0  0  0  0  0  0  0  0  0  0  0
    9.6494   11.1353   20.4167 C   0  0  0  0  0  0  0  0  0  0  0  0
    8.1431    7.6829   21.9046 C   0  0  0  0  0  0  0  0  0  0  0  0
    7.7796   10.1314   21.5115 N   0  0  0  0  0  0  0  0  0  0  0  0
    9.2768    5.6183   21.4437 C   0  0  0  0  0  0  0  0  0  0  0  0
    8.6315    7.7322   23.1768 C   0  0  0  0  0  0  0  0  0  0  0  0
   13.0537    9.9821   20.5781 C   0  0  0  0  0  0  0  0  0  0  0  0
   10.3850    4.6575   23.2386 O   0  0  0  0  0  0  0  0  0  0  0  0
    4.2069    6.8450   20.7994 C   0  0  0  0  0  0  0  0  0  0  0  0
    3.0726   10.1043   19.8522 O   0  0  0  0  0  0  0  0  0  0  0  0
    5.5057    7.1196   21.1155 C   0  0  0  0  0  0  0  0  0  0  0  0
    7.0367   11.0229   21.9948 O   0  0  0  0  0  0  0  0  0  0  0  0
  1  8  4  0
  1 12  4  0
  2  9  1  0
  2 11  4  0
  2 25  4  0
  3 12  4  0
  3 14  1  0
  3 23  4  0
  4 13  4  0
  4 21  4  0
  4 24  1  0
  5  8  4  0
  5 23  4  0
  6 18  2  0
  7 15  4  0
  7 16  1  0
  7 27  4  0
  8 18  1  0
 10 18  1  0
 10 20  1  0
 11 15  4  0
 11 26  1  0
 13 22  4  0
 16 19  1  0
 16 20  2  0
 17 19  4  0
 17 21  4  0
 19 22  4  0
 20 28  1  0
 25 27  4  0
M  END
$$$$

 Created by Python create_sdf_string function

 28 30  0  0  0  0  0  0  0  0999 V2000
   11.4592   11.2893   18.7941 C   0  0  0  0  0  0  0  0  0  0  0  0
    3.4202    7.9009   20.3866 C   0  0  0  0  0  0  0  0  0  0  0  0
   13.5280   10.3522   19.3586 C   0  0  0  0  0  0  0  0  0  0  0  0
    9.6923    5.6468   22.7891 C   0  0  0  0  0  0  0  0  0  0  0  0
   11.7756   10.2554   20.8841 N   0  0  0  0  0  0  0  0  0  0  0  0
    8.9876   11.9370   19.8757 O   0  0  0  0  0  0  0  0  0  0  0  0
    6.0167    8.4478   21.1089 C   0  0  0  0  0  0  0  0  0  0  0  0
   11.0002   10.8890   20.0262 C   0  0  0  0  0  0  0  0  0  0  0  0
    2.1721    7.7393   20.0315 O   0  0  0  0  0  0  0  0  0  0  0  0
    9.1107   10.3880   21.3769 N   0  0  0  0  0  0  0  0  0  0  0  0
    3.9102    9.2008   20.3124 C   0  0  0  0  0  0  0  0  0  0  0  0
   12.7292   10.9960   18.4597 C   0  0  0  0  0  0  0  0  0  0  0  0
    9.3798    6.6793   23.6625 C   0  0  0  0  0  0  0  0  0  0  0  0
   14.7425   10.0739   19.0802 O   0  0  0  0  0  0  0  0  0  0  0  0
    5.1894    9.4673   20.7118 C   0  0  0  0  0  0  0  0  0  0  0  0
    7.3773    8.8224   21.4870 C   0  0  0  0  0  0  0  0  0  0  0  0
    8.4391    6.6439   21.0235 C   0  0  0  0  0  0  0  0  0  0  0  0
    9.6494   11.1353   20.4167 C   0  0  0  0  0  0  0  0  0  0  0  0
    8.1431    7.6829   21.9046 C   0  0  0  0  0  0  0  0  0  0  0  0
    7.7796   10.1314   21.5115 N   0  0  0  0  0  0  0  0  0  0  0  0
    9.2768    5.6183   21.4437 C   0  0  0  0  0  0  0  0  0  0  0  0
    8.6315    7.7322   23.1768 C   0  0  0  0  0  0  0  0  0  0  0  0
   13.0537    9.9821   20.5781 C   0  0  0  0  0  0  0  0  0  0  0  0
   10.3850    4.6575   23.2386 O   0  0  0  0  0  0  0  0  0  0  0  0
    4.2069    6.8450   20.7994 C   0  0  0  0  0  0  0  0  0  0  0  0
    3.0726   10.1043   19.8522 O   0  0  0  0  0  0  0  0  0  0  0  0
    5.5057    7.1196   21.1155 C   0  0  0  0  0  0  0  0  0  0  0  0
    7.0367   11.0229   21.9948 O   0  0  0  0  0  0  0  0  0  0  0  0
  1  8  4  0
  1 12  4  0
  2  9  1  0
  2 11  4  0
  2 25  4  0
  3 12  4  0
  3 14  1  0
  3 23  4  0
  4 13  4  0
  4 21  4  0
  4 24  1  0
  5  8  4  0
  5 23  4  0
  6 18  2  0
  7 15  4  0
  7 16  1  0
  7 27  4  0
  8 18  1  0
 10 18  1  0
 10 20  1  0
 11 15  4  0
 11 26  1  0
 13 22  4  0
 16 19  1  0
 16 20  2  0
 17 19  4  0
 17 21  4  0
 19 22  4  0
 20 28  1  0
 25 27  4  0
M  END
$$$$

 Created by Python create_sdf_string function

 28 30  0  0  0  0  0  0  0  0999 V2000
   11.4592   11.2893   18.7941 C   0  0  0  0  0  0  0  0  0  0  0  0
    3.4202    7.9009   20.3866 C   0  0  0  0  0  0  0  0  0  0  0  0
   13.5280   10.3522   19.3586 C   0  0  0  0  0  0  0  0  0  0  0  0
    9.6923    5.6468   22.7891 C   0  0  0  0  0  0  0  0  0  0  0  0
   11.7756   10.2554   20.8841 N   0  0  0  0  0  0  0  0  0  0  0  0
    8.9876   11.9370   19.8757 O   0  0  0  0  0  0  0  0  0  0  0  0
    6.0167    8.4478   21.1089 C   0  0  0  0  0  0  0  0  0  0  0  0
   11.0002   10.8890   20.0262 C   0  0  0  0  0  0  0  0  0  0  0  0
    2.1721    7.7393   20.0315 O   0  0  0  0  0  0  0  0  0  0  0  0
    9.1107   10.3880   21.3769 N   0  0  0  0  0  0  0  0  0  0  0  0
    3.9102    9.2008   20.3124 C   0  0  0  0  0  0  0  0  0  0  0  0
   12.7292   10.9960   18.4597 C   0  0  0  0  0  0  0  0  0  0  0  0
    9.3798    6.6793   23.6625 C   0  0  0  0  0  0  0  0  0  0  0  0
   14.7425   10.0739   19.0802 O   0  0  0  0  0  0  0  0  0  0  0  0
    5.1894    9.4673   20.7118 C   0  0  0  0  0  0  0  0  0  0  0  0
    7.3773    8.8224   21.4870 C   0  0  0  0  0  0  0  0  0  0  0  0
    8.4391    6.6439   21.0235 C   0  0  0  0  0  0  0  0  0  0  0  0
    9.6494   11.1353   20.4167 C   0  0  0  0  0  0  0  0  0  0  0  0
    8.1431    7.6829   21.9046 C   0  0  0  0  0  0  0  0  0  0  0  0
    7.7796   10.1314   21.5115 N   0  0  0  0  0  0  0  0  0  0  0  0
    9.2768    5.6183   21.4437 C   0  0  0  0  0  0  0  0  0  0  0  0
    8.6315    7.7322   23.1768 C   0  0  0  0  0  0  0  0  0  0  0  0
   13.0537    9.9821   20.5781 C   0  0  0  0  0  0  0  0  0  0  0  0
   10.3850    4.6575   23.2386 O   0  0  0  0  0  0  0  0  0  0  0  0
    4.2069    6.8450   20.7994 C   0  0  0  0  0  0  0  0  0  0  0  0
    3.0726   10.1043   19.8522 O   0  0  0  0  0  0  0  0  0  0  0  0
    5.5057    7.1196   21.1155 C   0  0  0  0  0  0  0  0  0  0  0  0
    7.0367   11.0229   21.9948 O   0  0  0  0  0  0  0  0  0  0  0  0
  1  8  4  0
  1 12  4  0
  2  9  1  0
  2 11  4  0
  2 25  4  0
  3 12  4  0
  3 14  1  0
  3 23  4  0
  4 13  4  0
  4 21  4  0
  4 24  1  0
  5  8  4  0
  5 23  4  0
  6 18  2  0
  7 15  4  0
  7 16  1  0
  7 27  4  0
  8 18  1  0
 10 18  1  0
 10 20  1  0
 11 15  4  0
 11 26  1  0
 13 22  4  0
 16 19  1  0
 16 20  2  0
 17 19  4  0
 17 21  4  0
 19 22  4  0
 20 28  1  0
 25 27  4  0
M  END
$$$$

 Created by Python create_sdf_string function

 28 30  0  0  0  0  0  0  0  0999 V2000
   11.4592   11.2893   18.7941 C   0  0  0  0  0  0  0  0  0  0  0  0
    3.4202    7.9009   20.3866 C   0  0  0  0  0  0  0  0  0  0  0  0
   13.5280   10.3522   19.3586 C   0  0  0  0  0  0  0  0  0  0  0  0
    9.6923    5.6468   22.7891 C   0  0  0  0  0  0  0  0  0  0  0  0
   11.7756   10.2554   20.8841 N   0  0  0  0  0  0  0  0  0  0  0  0
    8.9876   11.9370   19.8757 O   0  0  0  0  0  0  0  0  0  0  0  0
    6.0167    8.4478   21.1089 C   0  0  0  0  0  0  0  0  0  0  0  0
   11.0002   10.8890   20.0262 C   0  0  0  0  0  0  0  0  0  0  0  0
    2.1721    7.7393   20.0315 O   0  0  0  0  0  0  0  0  0  0  0  0
    9.1107   10.3880   21.3769 N   0  0  0  0  0  0  0  0  0  0  0  0
    3.9102    9.2008   20.3124 C   0  0  0  0  0  0  0  0  0  0  0  0
   12.7292   10.9960   18.4597 C   0  0  0  0  0  0  0  0  0  0  0  0
    9.3798    6.6793   23.6625 C   0  0  0  0  0  0  0  0  0  0  0  0
   14.7425   10.0739   19.0802 O   0  0  0  0  0  0  0  0  0  0  0  0
    5.1894    9.4673   20.7118 C   0  0  0  0  0  0  0  0  0  0  0  0
    7.3773    8.8224   21.4870 C   0  0  0  0  0  0  0  0  0  0  0  0
    8.4391    6.6439   21.0235 C   0  0  0  0  0  0  0  0  0  0  0  0
    9.6494   11.1353   20.4167 C   0  0  0  0  0  0  0  0  0  0  0  0
    8.1431    7.6829   21.9046 C   0  0  0  0  0  0  0  0  0  0  0  0
    7.7796   10.1314   21.5115 N   0  0  0  0  0  0  0  0  0  0  0  0
    9.2768    5.6183   21.4437 C   0  0  0  0  0  0  0  0  0  0  0  0
    8.6315    7.7322   23.1768 C   0  0  0  0  0  0  0  0  0  0  0  0
   13.0537    9.9821   20.5781 C   0  0  0  0  0  0  0  0  0  0  0  0
   10.3850    4.6575   23.2386 O   0  0  0  0  0  0  0  0  0  0  0  0
    4.2069    6.8450   20.7994 C   0  0  0  0  0  0  0  0  0  0  0  0
    3.0726   10.1043   19.8522 O   0  0  0  0  0  0  0  0  0  0  0  0
    5.5057    7.1196   21.1155 C   0  0  0  0  0  0  0  0  0  0  0  0
    7.0367   11.0229   21.9948 O   0  0  0  0  0  0  0  0  0  0  0  0
  1  8  4  0
  1 12  4  0
  2  9  1  0
  2 11  4  0
  2 25  4  0
  3 12  4  0
  3 14  1  0
  3 23  4  0
  4 13  4  0
  4 21  4  0
  4 24  1  0
  5  8  4  0
  5 23  4  0
  6 18  2  0
  7 15  4  0
  7 16  1  0
  7 27  4  0
  8 18  1  0
 10 18  1  0
 10 20  1  0
 11 15  4  0
 11 26  1  0
 13 22  4  0
 16 19  1  0
 16 20  2  0
 17 19  4  0
 17 21  4  0
 19 22  4  0
 20 28  1  0
 25 27  4  0
M  END
$$$$

 Created by Python create_sdf_string function

 28 30  0  0  0  0  0  0  0  0999 V2000
   11.4592   11.2893   18.7941 C   0  0  0  0  0  0  0  0  0  0  0  0
    3.4202    7.9009   20.3866 C   0  0  0  0  0  0  0  0  0  0  0  0
   13.5280   10.3522   19.3586 C   0  0  0  0  0  0  0  0  0  0  0  0
    9.6923    5.6468   22.7891 C   0  0  0  0  0  0  0  0  0  0  0  0
   11.7756   10.2554   20.8841 N   0  0  0  0  0  0  0  0  0  0  0  0
    8.9876   11.9370   19.8757 O   0  0  0  0  0  0  0  0  0  0  0  0
    6.0167    8.4478   21.1089 C   0  0  0  0  0  0  0  0  0  0  0  0
   11.0002   10.8890   20.0262 C   0  0  0  0  0  0  0  0  0  0  0  0
    2.1721    7.7393   20.0315 O   0  0  0  0  0  0  0  0  0  0  0  0
    9.1107   10.3880   21.3769 N   0  0  0  0  0  0  0  0  0  0  0  0
    3.9102    9.2008   20.3124 C   0  0  0  0  0  0  0  0  0  0  0  0
   12.7292   10.9960   18.4597 C   0  0  0  0  0  0  0  0  0  0  0  0
    9.3798    6.6793   23.6625 C   0  0  0  0  0  0  0  0  0  0  0  0
   14.7425   10.0739   19.0802 O   0  0  0  0  0  0  0  0  0  0  0  0
    5.1894    9.4673   20.7118 C   0  0  0  0  0  0  0  0  0  0  0  0
    7.3773    8.8224   21.4870 C   0  0  0  0  0  0  0  0  0  0  0  0
    8.4391    6.6439   21.0235 C   0  0  0  0  0  0  0  0  0  0  0  0
    9.6494   11.1353   20.4167 C   0  0  0  0  0  0  0  0  0  0  0  0
    8.1431    7.6829   21.9046 C   0  0  0  0  0  0  0  0  0  0  0  0
    7.7796   10.1314   21.5115 N   0  0  0  0  0  0  0  0  0  0  0  0
    9.2768    5.6183   21.4437 C   0  0  0  0  0  0  0  0  0  0  0  0
    8.6315    7.7322   23.1768 C   0  0  0  0  0  0  0  0  0  0  0  0
   13.0537    9.9821   20.5781 C   0  0  0  0  0  0  0  0  0  0  0  0
   10.3850    4.6575   23.2386 O   0  0  0  0  0  0  0  0  0  0  0  0
    4.2069    6.8450   20.7994 C   0  0  0  0  0  0  0  0  0  0  0  0
    3.0726   10.1043   19.8522 O   0  0  0  0  0  0  0  0  0  0  0  0
    5.5057    7.1196   21.1155 C   0  0  0  0  0  0  0  0  0  0  0  0
    7.0367   11.0229   21.9948 O   0  0  0  0  0  0  0  0  0  0  0  0
  1  8  4  0
  1 12  4  0
  2  9  1  0
  2 11  4  0
  2 25  4  0
  3 12  4  0
  3 14  1  0
  3 23  4  0
  4 13  4  0
  4 21  4  0
  4 24  1  0
  5  8  4  0
  5 23  4  0
  6 18  2  0
  7 15  4  0
  7 16  1  0
  7 27  4  0
  8 18  1  0
 10 18  1  0
 10 20  1  0
 11 15  4  0
 11 26  1  0
 13 22  4  0
 16 19  1  0
 16 20  2  0
 17 19  4  0
 17 21  4  0
 19 22  4  0
 20 28  1  0
 25 27  4  0
M  END
$$$$

 Created by Python create_sdf_string function

 28 30  0  0  0  0  0  0  0  0999 V2000
   11.4592   11.2893   18.7941 C   0  0  0  0  0  0  0  0  0  0  0  0
    3.4202    7.9009   20.3866 C   0  0  0  0  0  0  0  0  0  0  0  0
   13.5280   10.3522   19.3586 C   0  0  0  0  0  0  0  0  0  0  0  0
    9.6923    5.6468   22.7891 C   0  0  0  0  0  0  0  0  0  0  0  0
   11.7756   10.2554   20.8841 N   0  0  0  0  0  0  0  0  0  0  0  0
    8.9876   11.9370   19.8757 O   0  0  0  0  0  0  0  0  0  0  0  0
    6.0167    8.4478   21.1089 C   0  0  0  0  0  0  0  0  0  0  0  0
   11.0002   10.8890   20.0262 C   0  0  0  0  0  0  0  0  0  0  0  0
    2.1721    7.7393   20.0315 O   0  0  0  0  0  0  0  0  0  0  0  0
    9.1107   10.3880   21.3769 N   0  0  0  0  0  0  0  0  0  0  0  0
    3.9102    9.2008   20.3124 C   0  0  0  0  0  0  0  0  0  0  0  0
   12.7292   10.9960   18.4597 C   0  0  0  0  0  0  0  0  0  0  0  0
    9.3798    6.6793   23.6625 C   0  0  0  0  0  0  0  0  0  0  0  0
   14.7425   10.0739   19.0802 O   0  0  0  0  0  0  0  0  0  0  0  0
    5.1894    9.4673   20.7118 C   0  0  0  0  0  0  0  0  0  0  0  0
    7.3773    8.8224   21.4870 C   0  0  0  0  0  0  0  0  0  0  0  0
    8.4391    6.6439   21.0235 C   0  0  0  0  0  0  0  0  0  0  0  0
    9.6494   11.1353   20.4167 C   0  0  0  0  0  0  0  0  0  0  0  0
    8.1431    7.6829   21.9046 C   0  0  0  0  0  0  0  0  0  0  0  0
    7.7796   10.1314   21.5115 N   0  0  0  0  0  0  0  0  0  0  0  0
    9.2768    5.6183   21.4437 C   0  0  0  0  0  0  0  0  0  0  0  0
    8.6315    7.7322   23.1768 C   0  0  0  0  0  0  0  0  0  0  0  0
   13.0537    9.9821   20.5781 C   0  0  0  0  0  0  0  0  0  0  0  0
   10.3850    4.6575   23.2386 O   0  0  0  0  0  0  0  0  0  0  0  0
    4.2069    6.8450   20.7994 C   0  0  0  0  0  0  0  0  0  0  0  0
    3.0726   10.1043   19.8522 O   0  0  0  0  0  0  0  0  0  0  0  0
    5.5057    7.1196   21.1155 C   0  0  0  0  0  0  0  0  0  0  0  0
    7.0367   11.0229   21.9948 O   0  0  0  0  0  0  0  0  0  0  0  0
  1  8  4  0
  1 12  4  0
  2  9  1  0
  2 11  4  0
  2 25  4  0
  3 12  4  0
  3 14  1  0
  3 23  4  0
  4 13  4  0
  4 21  4  0
  4 24  1  0
  5  8  4  0
  5 23  4  0
  6 18  2  0
  7 15  4  0
  7 16  1  0
  7 27  4  0
  8 18  1  0
 10 18  1  0
 10 20  1  0
 11 15  4  0
 11 26  1  0
 13 22  4  0
 16 19  1  0
 16 20  2  0
 17 19  4  0
 17 21  4  0
 19 22  4  0
 20 28  1  0
 25 27  4  0
M  END
$$$$

 Created by Python create_sdf_string function

 28 30  0  0  0  0  0  0  0  0999 V2000
   11.4592   11.2893   18.7941 C   0  0  0  0  0  0  0  0  0  0  0  0
    3.4202    7.9009   20.3866 C   0  0  0  0  0  0  0  0  0  0  0  0
   13.5280   10.3522   19.3586 C   0  0  0  0  0  0  0  0  0  0  0  0
    9.6923    5.6468   22.7891 C   0  0  0  0  0  0  0  0  0  0  0  0
   11.7756   10.2554   20.8841 N   0  0  0  0  0  0  0  0  0  0  0  0
    8.9876   11.9370   19.8757 O   0  0  0  0  0  0  0  0  0  0  0  0
    6.0167    8.4478   21.1089 C   0  0  0  0  0  0  0  0  0  0  0  0
   11.0002   10.8890   20.0262 C   0  0  0  0  0  0  0  0  0  0  0  0
    2.1721    7.7393   20.0315 O   0  0  0  0  0  0  0  0  0  0  0  0
    9.1107   10.3880   21.3769 N   0  0  0  0  0  0  0  0  0  0  0  0
    3.9102    9.2008   20.3124 C   0  0  0  0  0  0  0  0  0  0  0  0
   12.7292   10.9960   18.4597 C   0  0  0  0  0  0  0  0  0  0  0  0
    9.3798    6.6793   23.6625 C   0  0  0  0  0  0  0  0  0  0  0  0
   14.7425   10.0739   19.0802 O   0  0  0  0  0  0  0  0  0  0  0  0
    5.1894    9.4673   20.7118 C   0  0  0  0  0  0  0  0  0  0  0  0
    7.3773    8.8224   21.4870 C   0  0  0  0  0  0  0  0  0  0  0  0
    8.4391    6.6439   21.0235 C   0  0  0  0  0  0  0  0  0  0  0  0
    9.6494   11.1353   20.4167 C   0  0  0  0  0  0  0  0  0  0  0  0
    8.1431    7.6829   21.9046 C   0  0  0  0  0  0  0  0  0  0  0  0
    7.7796   10.1314   21.5115 N   0  0  0  0  0  0  0  0  0  0  0  0
    9.2768    5.6183   21.4437 C   0  0  0  0  0  0  0  0  0  0  0  0
    8.6315    7.7322   23.1768 C   0  0  0  0  0  0  0  0  0  0  0  0
   13.0537    9.9821   20.5781 C   0  0  0  0  0  0  0  0  0  0  0  0
   10.3850    4.6575   23.2386 O   0  0  0  0  0  0  0  0  0  0  0  0
    4.2069    6.8450   20.7994 C   0  0  0  0  0  0  0  0  0  0  0  0
    3.0726   10.1043   19.8522 O   0  0  0  0  0  0  0  0  0  0  0  0
    5.5057    7.1196   21.1155 C   0  0  0  0  0  0  0  0  0  0  0  0
    7.0367   11.0229   21.9948 O   0  0  0  0  0  0  0  0  0  0  0  0
  1  8  4  0
  1 12  4  0
  2  9  1  0
  2 11  4  0
  2 25  4  0
  3 12  4  0
  3 14  1  0
  3 23  4  0
  4 13  4  0
  4 21  4  0
  4 24  1  0
  5  8  4  0
  5 23  4  0
  6 18  2  0
  7 15  4  0
  7 16  1  0
  7 27  4  0
  8 18  1  0
 10 18  1  0
 10 20  1  0
 11 15  4  0
 11 26  1  0
 13 22  4  0
 16 19  1  0
 16 20  2  0
 17 19  4  0
 17 21  4  0
 19 22  4  0
 20 28  1  0
 25 27  4  0
M  END
$$$$

 Created by Python create_sdf_string function

 28 30  0  0  0  0  0  0  0  0999 V2000
   11.4592   11.2893   18.7941 C   0  0  0  0  0  0  0  0  0  0  0  0
    3.4202    7.9009   20.3866 C   0  0  0  0  0  0  0  0  0  0  0  0
   13.5280   10.3522   19.3586 C   0  0  0  0  0  0  0  0  0  0  0  0
    9.6923    5.6468   22.7891 C   0  0  0  0  0  0  0  0  0  0  0  0
   11.7756   10.2554   20.8841 N   0  0  0  0  0  0  0  0  0  0  0  0
    8.9876   11.9370   19.8757 O   0  0  0  0  0  0  0  0  0  0  0  0
    6.0167    8.4478   21.1089 C   0  0  0  0  0  0  0  0  0  0  0  0
   11.0002   10.8890   20.0262 C   0  0  0  0  0  0  0  0  0  0  0  0
    2.1721    7.7393   20.0315 O   0  0  0  0  0  0  0  0  0  0  0  0
    9.1107   10.3880   21.3769 N   0  0  0  0  0  0  0  0  0  0  0  0
    3.9102    9.2008   20.3124 C   0  0  0  0  0  0  0  0  0  0  0  0
   12.7292   10.9960   18.4597 C   0  0  0  0  0  0  0  0  0  0  0  0
    9.3798    6.6793   23.6625 C   0  0  0  0  0  0  0  0  0  0  0  0
   14.7425   10.0739   19.0802 O   0  0  0  0  0  0  0  0  0  0  0  0
    5.1894    9.4673   20.7118 C   0  0  0  0  0  0  0  0  0  0  0  0
    7.3773    8.8224   21.4870 C   0  0  0  0  0  0  0  0  0  0  0  0
    8.4391    6.6439   21.0235 C   0  0  0  0  0  0  0  0  0  0  0  0
    9.6494   11.1353   20.4167 C   0  0  0  0  0  0  0  0  0  0  0  0
    8.1431    7.6829   21.9046 C   0  0  0  0  0  0  0  0  0  0  0  0
    7.7796   10.1314   21.5115 N   0  0  0  0  0  0  0  0  0  0  0  0
    9.2768    5.6183   21.4437 C   0  0  0  0  0  0  0  0  0  0  0  0
    8.6315    7.7322   23.1768 C   0  0  0  0  0  0  0  0  0  0  0  0
   13.0537    9.9821   20.5781 C   0  0  0  0  0  0  0  0  0  0  0  0
   10.3850    4.6575   23.2386 O   0  0  0  0  0  0  0  0  0  0  0  0
    4.2069    6.8450   20.7994 C   0  0  0  0  0  0  0  0  0  0  0  0
    3.0726   10.1043   19.8522 O   0  0  0  0  0  0  0  0  0  0  0  0
    5.5057    7.1196   21.1155 C   0  0  0  0  0  0  0  0  0  0  0  0
    7.0367   11.0229   21.9948 O   0  0  0  0  0  0  0  0  0  0  0  0
  1  8  4  0
  1 12  4  0
  2  9  1  0
  2 11  4  0
  2 25  4  0
  3 12  4  0
  3 14  1  0
  3 23  4  0
  4 13  4  0
  4 21  4  0
  4 24  1  0
  5  8  4  0
  5 23  4  0
  6 18  2  0
  7 15  4  0
  7 16  1  0
  7 27  4  0
  8 18  1  0
 10 18  1  0
 10 20  1  0
 11 15  4  0
 11 26  1  0
 13 22  4  0
 16 19  1  0
 16 20  2  0
 17 19  4  0
 17 21  4  0
 19 22  4  0
 20 28  1  0
 25 27  4  0
M  END
$$$$

 Created by Python create_sdf_string function

 28 30  0  0  0  0  0  0  0  0999 V2000
   11.4592   11.2893   18.7941 C   0  0  0  0  0  0  0  0  0  0  0  0
    3.4202    7.9009   20.3866 C   0  0  0  0  0  0  0  0  0  0  0  0
   13.5280   10.3522   19.3586 C   0  0  0  0  0  0  0  0  0  0  0  0
    9.6923    5.6468   22.7891 C   0  0  0  0  0  0  0  0  0  0  0  0
   11.7756   10.2554   20.8841 N   0  0  0  0  0  0  0  0  0  0  0  0
    8.9876   11.9370   19.8757 O   0  0  0  0  0  0  0  0  0  0  0  0
    6.0167    8.4478   21.1089 C   0  0  0  0  0  0  0  0  0  0  0  0
   11.0002   10.8890   20.0262 C   0  0  0  0  0  0  0  0  0  0  0  0
    2.1721    7.7393   20.0315 O   0  0  0  0  0  0  0  0  0  0  0  0
    9.1107   10.3880   21.3769 N   0  0  0  0  0  0  0  0  0  0  0  0
    3.9102    9.2008   20.3124 C   0  0  0  0  0  0  0  0  0  0  0  0
   12.7292   10.9960   18.4597 C   0  0  0  0  0  0  0  0  0  0  0  0
    9.3798    6.6793   23.6625 C   0  0  0  0  0  0  0  0  0  0  0  0
   14.7425   10.0739   19.0802 O   0  0  0  0  0  0  0  0  0  0  0  0
    5.1894    9.4673   20.7118 C   0  0  0  0  0  0  0  0  0  0  0  0
    7.3773    8.8224   21.4870 C   0  0  0  0  0  0  0  0  0  0  0  0
    8.4391    6.6439   21.0235 C   0  0  0  0  0  0  0  0  0  0  0  0
    9.6494   11.1353   20.4167 C   0  0  0  0  0  0  0  0  0  0  0  0
    8.1431    7.6829   21.9046 C   0  0  0  0  0  0  0  0  0  0  0  0
    7.7796   10.1314   21.5115 N   0  0  0  0  0  0  0  0  0  0  0  0
    9.2768    5.6183   21.4437 C   0  0  0  0  0  0  0  0  0  0  0  0
    8.6315    7.7322   23.1768 C   0  0  0  0  0  0  0  0  0  0  0  0
   13.0537    9.9821   20.5781 C   0  0  0  0  0  0  0  0  0  0  0  0
   10.3850    4.6575   23.2386 O   0  0  0  0  0  0  0  0  0  0  0  0
    4.2069    6.8450   20.7994 C   0  0  0  0  0  0  0  0  0  0  0  0
    3.0726   10.1043   19.8522 O   0  0  0  0  0  0  0  0  0  0  0  0
    5.5057    7.1196   21.1155 C   0  0  0  0  0  0  0  0  0  0  0  0
    7.0367   11.0229   21.9948 O   0  0  0  0  0  0  0  0  0  0  0  0
  1  8  4  0
  1 12  4  0
  2  9  1  0
  2 11  4  0
  2 25  4  0
  3 12  4  0
  3 14  1  0
  3 23  4  0
  4 13  4  0
  4 21  4  0
  4 24  1  0
  5  8  4  0
  5 23  4  0
  6 18  2  0
  7 15  4  0
  7 16  1  0
  7 27  4  0
  8 18  1  0
 10 18  1  0
 10 20  1  0
 11 15  4  0
 11 26  1  0
 13 22  4  0
 16 19  1  0
 16 20  2  0
 17 19  4  0
 17 21  4  0
 19 22  4  0
 20 28  1  0
 25 27  4  0
M  END
$$$$

 Created by Python create_sdf_string function

 28 30  0  0  0  0  0  0  0  0999 V2000
   11.4592   11.2893   18.7941 C   0  0  0  0  0  0  0  0  0  0  0  0
    3.4202    7.9009   20.3866 C   0  0  0  0  0  0  0  0  0  0  0  0
   13.5280   10.3522   19.3586 C   0  0  0  0  0  0  0  0  0  0  0  0
    9.6923    5.6468   22.7891 C   0  0  0  0  0  0  0  0  0  0  0  0
   11.7756   10.2554   20.8841 N   0  0  0  0  0  0  0  0  0  0  0  0
    8.9876   11.9370   19.8757 O   0  0  0  0  0  0  0  0  0  0  0  0
    6.0167    8.4478   21.1089 C   0  0  0  0  0  0  0  0  0  0  0  0
   11.0002   10.8890   20.0262 C   0  0  0  0  0  0  0  0  0  0  0  0
    2.1721    7.7393   20.0315 O   0  0  0  0  0  0  0  0  0  0  0  0
    9.1107   10.3880   21.3769 N   0  0  0  0  0  0  0  0  0  0  0  0
    3.9102    9.2008   20.3124 C   0  0  0  0  0  0  0  0  0  0  0  0
   12.7292   10.9960   18.4597 C   0  0  0  0  0  0  0  0  0  0  0  0
    9.3798    6.6793   23.6625 C   0  0  0  0  0  0  0  0  0  0  0  0
   14.7425   10.0739   19.0802 O   0  0  0  0  0  0  0  0  0  0  0  0
    5.1894    9.4673   20.7118 C   0  0  0  0  0  0  0  0  0  0  0  0
    7.3773    8.8224   21.4870 C   0  0  0  0  0  0  0  0  0  0  0  0
    8.4391    6.6439   21.0235 C   0  0  0  0  0  0  0  0  0  0  0  0
    9.6494   11.1353   20.4167 C   0  0  0  0  0  0  0  0  0  0  0  0
    8.1431    7.6829   21.9046 C   0  0  0  0  0  0  0  0  0  0  0  0
    7.7796   10.1314   21.5115 N   0  0  0  0  0  0  0  0  0  0  0  0
    9.2768    5.6183   21.4437 C   0  0  0  0  0  0  0  0  0  0  0  0
    8.6315    7.7322   23.1768 C   0  0  0  0  0  0  0  0  0  0  0  0
   13.0537    9.9821   20.5781 C   0  0  0  0  0  0  0  0  0  0  0  0
   10.3850    4.6575   23.2386 O   0  0  0  0  0  0  0  0  0  0  0  0
    4.2069    6.8450   20.7994 C   0  0  0  0  0  0  0  0  0  0  0  0
    3.0726   10.1043   19.8522 O   0  0  0  0  0  0  0  0  0  0  0  0
    5.5057    7.1196   21.1155 C   0  0  0  0  0  0  0  0  0  0  0  0
    7.0367   11.0229   21.9948 O   0  0  0  0  0  0  0  0  0  0  0  0
  1  8  4  0
  1 12  4  0
  2  9  1  0
  2 11  4  0
  2 25  4  0
  3 12  4  0
  3 14  1  0
  3 23  4  0
  4 13  4  0
  4 21  4  0
  4 24  1  0
  5  8  4  0
  5 23  4  0
  6 18  2  0
  7 15  4  0
  7 16  1  0
  7 27  4  0
  8 18  1  0
 10 18  1  0
 10 20  1  0
 11 15  4  0
 11 26  1  0
 13 22  4  0
 16 19  1  0
 16 20  2  0
 17 19  4  0
 17 21  4  0
 19 22  4  0
 20 28  1  0
 25 27  4  0
M  END
$$$$

 Created by Python create_sdf_string function

 28 30  0  0  0  0  0  0  0  0999 V2000
   11.4592   11.2893   18.7941 C   0  0  0  0  0  0  0  0  0  0  0  0
    3.4202    7.9009   20.3866 C   0  0  0  0  0  0  0  0  0  0  0  0
   13.5280   10.3522   19.3586 C   0  0  0  0  0  0  0  0  0  0  0  0
    9.6923    5.6468   22.7891 C   0  0  0  0  0  0  0  0  0  0  0  0
   11.7756   10.2554   20.8841 N   0  0  0  0  0  0  0  0  0  0  0  0
    8.9876   11.9370   19.8757 O   0  0  0  0  0  0  0  0  0  0  0  0
    6.0167    8.4478   21.1089 C   0  0  0  0  0  0  0  0  0  0  0  0
   11.0002   10.8890   20.0262 C   0  0  0  0  0  0  0  0  0  0  0  0
    2.1721    7.7393   20.0315 O   0  0  0  0  0  0  0  0  0  0  0  0
    9.1107   10.3880   21.3769 N   0  0  0  0  0  0  0  0  0  0  0  0
    3.9102    9.2008   20.3124 C   0  0  0  0  0  0  0  0  0  0  0  0
   12.7292   10.9960   18.4597 C   0  0  0  0  0  0  0  0  0  0  0  0
    9.3798    6.6793   23.6625 C   0  0  0  0  0  0  0  0  0  0  0  0
   14.7425   10.0739   19.0802 O   0  0  0  0  0  0  0  0  0  0  0  0
    5.1894    9.4673   20.7118 C   0  0  0  0  0  0  0  0  0  0  0  0
    7.3773    8.8224   21.4870 C   0  0  0  0  0  0  0  0  0  0  0  0
    8.4391    6.6439   21.0235 C   0  0  0  0  0  0  0  0  0  0  0  0
    9.6494   11.1353   20.4167 C   0  0  0  0  0  0  0  0  0  0  0  0
    8.1431    7.6829   21.9046 C   0  0  0  0  0  0  0  0  0  0  0  0
    7.7796   10.1314   21.5115 N   0  0  0  0  0  0  0  0  0  0  0  0
    9.2768    5.6183   21.4437 C   0  0  0  0  0  0  0  0  0  0  0  0
    8.6315    7.7322   23.1768 C   0  0  0  0  0  0  0  0  0  0  0  0
   13.0537    9.9821   20.5781 C   0  0  0  0  0  0  0  0  0  0  0  0
   10.3850    4.6575   23.2386 O   0  0  0  0  0  0  0  0  0  0  0  0
    4.2069    6.8450   20.7994 C   0  0  0  0  0  0  0  0  0  0  0  0
    3.0726   10.1043   19.8522 O   0  0  0  0  0  0  0  0  0  0  0  0
    5.5057    7.1196   21.1155 C   0  0  0  0  0  0  0  0  0  0  0  0
    7.0367   11.0229   21.9948 O   0  0  0  0  0  0  0  0  0  0  0  0
  1  8  4  0
  1 12  4  0
  2  9  1  0
  2 11  4  0
  2 25  4  0
  3 12  4  0
  3 14  1  0
  3 23  4  0
  4 13  4  0
  4 21  4  0
  4 24  1  0
  5  8  4  0
  5 23  4  0
  6 18  2  0
  7 15  4  0
  7 16  1  0
  7 27  4  0
  8 18  1  0
 10 18  1  0
 10 20  1  0
 11 15  4  0
 11 26  1  0
 13 22  4  0
 16 19  1  0
 16 20  2  0
 17 19  4  0
 17 21  4  0
 19 22  4  0
 20 28  1  0
 25 27  4  0
M  END
$$$$

 Created by Python create_sdf_string function

 28 30  0  0  0  0  0  0  0  0999 V2000
   11.4592   11.2893   18.7941 C   0  0  0  0  0  0  0  0  0  0  0  0
    3.4202    7.9009   20.3866 C   0  0  0  0  0  0  0  0  0  0  0  0
   13.5280   10.3522   19.3586 C   0  0  0  0  0  0  0  0  0  0  0  0
    9.6923    5.6468   22.7891 C   0  0  0  0  0  0  0  0  0  0  0  0
   11.7756   10.2554   20.8841 N   0  0  0  0  0  0  0  0  0  0  0  0
    8.9876   11.9370   19.8757 O   0  0  0  0  0  0  0  0  0  0  0  0
    6.0167    8.4478   21.1089 C   0  0  0  0  0  0  0  0  0  0  0  0
   11.0002   10.8890   20.0262 C   0  0  0  0  0  0  0  0  0  0  0  0
    2.1721    7.7393   20.0315 O   0  0  0  0  0  0  0  0  0  0  0  0
    9.1107   10.3880   21.3769 N   0  0  0  0  0  0  0  0  0  0  0  0
    3.9102    9.2008   20.3124 C   0  0  0  0  0  0  0  0  0  0  0  0
   12.7292   10.9960   18.4597 C   0  0  0  0  0  0  0  0  0  0  0  0
    9.3798    6.6793   23.6625 C   0  0  0  0  0  0  0  0  0  0  0  0
   14.7425   10.0739   19.0802 O   0  0  0  0  0  0  0  0  0  0  0  0
    5.1894    9.4673   20.7118 C   0  0  0  0  0  0  0  0  0  0  0  0
    7.3773    8.8224   21.4870 C   0  0  0  0  0  0  0  0  0  0  0  0
    8.4391    6.6439   21.0235 C   0  0  0  0  0  0  0  0  0  0  0  0
    9.6494   11.1353   20.4167 C   0  0  0  0  0  0  0  0  0  0  0  0
    8.1431    7.6829   21.9046 C   0  0  0  0  0  0  0  0  0  0  0  0
    7.7796   10.1314   21.5115 N   0  0  0  0  0  0  0  0  0  0  0  0
    9.2768    5.6183   21.4437 C   0  0  0  0  0  0  0  0  0  0  0  0
    8.6315    7.7322   23.1768 C   0  0  0  0  0  0  0  0  0  0  0  0
   13.0537    9.9821   20.5781 C   0  0  0  0  0  0  0  0  0  0  0  0
   10.3850    4.6575   23.2386 O   0  0  0  0  0  0  0  0  0  0  0  0
    4.2069    6.8450   20.7994 C   0  0  0  0  0  0  0  0  0  0  0  0
    3.0726   10.1043   19.8522 O   0  0  0  0  0  0  0  0  0  0  0  0
    5.5057    7.1196   21.1155 C   0  0  0  0  0  0  0  0  0  0  0  0
    7.0367   11.0229   21.9948 O   0  0  0  0  0  0  0  0  0  0  0  0
  1  8  4  0
  1 12  4  0
  2  9  1  0
  2 11  4  0
  2 25  4  0
  3 12  4  0
  3 14  1  0
  3 23  4  0
  4 13  4  0
  4 21  4  0
  4 24  1  0
  5  8  4  0
  5 23  4  0
  6 18  2  0
  7 15  4  0
  7 16  1  0
  7 27  4  0
  8 18  1  0
 10 18  1  0
 10 20  1  0
 11 15  4  0
 11 26  1  0
 13 22  4  0
 16 19  1  0
 16 20  2  0
 17 19  4  0
 17 21  4  0
 19 22  4  0
 20 28  1  0
 25 27  4  0
M  END
$$$$

 Created by Python create_sdf_string function

 28 30  0  0  0  0  0  0  0  0999 V2000
   11.4592   11.2893   18.7941 C   0  0  0  0  0  0  0  0  0  0  0  0
    3.4202    7.9009   20.3866 C   0  0  0  0  0  0  0  0  0  0  0  0
   13.5280   10.3522   19.3586 C   0  0  0  0  0  0  0  0  0  0  0  0
    9.6923    5.6468   22.7891 C   0  0  0  0  0  0  0  0  0  0  0  0
   11.7756   10.2554   20.8841 N   0  0  0  0  0  0  0  0  0  0  0  0
    8.9876   11.9370   19.8757 O   0  0  0  0  0  0  0  0  0  0  0  0
    6.0167    8.4478   21.1089 C   0  0  0  0  0  0  0  0  0  0  0  0
   11.0002   10.8890   20.0262 C   0  0  0  0  0  0  0  0  0  0  0  0
    2.1721    7.7393   20.0315 O   0  0  0  0  0  0  0  0  0  0  0  0
    9.1107   10.3880   21.3769 N   0  0  0  0  0  0  0  0  0  0  0  0
    3.9102    9.2008   20.3124 C   0  0  0  0  0  0  0  0  0  0  0  0
   12.7292   10.9960   18.4597 C   0  0  0  0  0  0  0  0  0  0  0  0
    9.3798    6.6793   23.6625 C   0  0  0  0  0  0  0  0  0  0  0  0
   14.7425   10.0739   19.0802 O   0  0  0  0  0  0  0  0  0  0  0  0
    5.1894    9.4673   20.7118 C   0  0  0  0  0  0  0  0  0  0  0  0
    7.3773    8.8224   21.4870 C   0  0  0  0  0  0  0  0  0  0  0  0
    8.4391    6.6439   21.0235 C   0  0  0  0  0  0  0  0  0  0  0  0
    9.6494   11.1353   20.4167 C   0  0  0  0  0  0  0  0  0  0  0  0
    8.1431    7.6829   21.9046 C   0  0  0  0  0  0  0  0  0  0  0  0
    7.7796   10.1314   21.5115 N   0  0  0  0  0  0  0  0  0  0  0  0
    9.2768    5.6183   21.4437 C   0  0  0  0  0  0  0  0  0  0  0  0
    8.6315    7.7322   23.1768 C   0  0  0  0  0  0  0  0  0  0  0  0
   13.0537    9.9821   20.5781 C   0  0  0  0  0  0  0  0  0  0  0  0
   10.3850    4.6575   23.2386 O   0  0  0  0  0  0  0  0  0  0  0  0
    4.2069    6.8450   20.7994 C   0  0  0  0  0  0  0  0  0  0  0  0
    3.0726   10.1043   19.8522 O   0  0  0  0  0  0  0  0  0  0  0  0
    5.5057    7.1196   21.1155 C   0  0  0  0  0  0  0  0  0  0  0  0
    7.0367   11.0229   21.9948 O   0  0  0  0  0  0  0  0  0  0  0  0
  1  8  4  0
  1 12  4  0
  2  9  1  0
  2 11  4  0
  2 25  4  0
  3 12  4  0
  3 14  1  0
  3 23  4  0
  4 13  4  0
  4 21  4  0
  4 24  1  0
  5  8  4  0
  5 23  4  0
  6 18  2  0
  7 15  4  0
  7 16  1  0
  7 27  4  0
  8 18  1  0
 10 18  1  0
 10 20  1  0
 11 15  4  0
 11 26  1  0
 13 22  4  0
 16 19  1  0
 16 20  2  0
 17 19  4  0
 17 21  4  0
 19 22  4  0
 20 28  1  0
 25 27  4  0
M  END
$$$$

 Created by Python create_sdf_string function

 28 30  0  0  0  0  0  0  0  0999 V2000
   11.4592   11.2893   18.7941 C   0  0  0  0  0  0  0  0  0  0  0  0
    3.4202    7.9009   20.3866 C   0  0  0  0  0  0  0  0  0  0  0  0
   13.5280   10.3522   19.3586 C   0  0  0  0  0  0  0  0  0  0  0  0
    9.6923    5.6468   22.7891 C   0  0  0  0  0  0  0  0  0  0  0  0
   11.7756   10.2554   20.8841 N   0  0  0  0  0  0  0  0  0  0  0  0
    8.9876   11.9370   19.8757 O   0  0  0  0  0  0  0  0  0  0  0  0
    6.0167    8.4478   21.1089 C   0  0  0  0  0  0  0  0  0  0  0  0
   11.0002   10.8890   20.0262 C   0  0  0  0  0  0  0  0  0  0  0  0
    2.1721    7.7393   20.0315 O   0  0  0  0  0  0  0  0  0  0  0  0
    9.1107   10.3880   21.3769 N   0  0  0  0  0  0  0  0  0  0  0  0
    3.9102    9.2008   20.3124 C   0  0  0  0  0  0  0  0  0  0  0  0
   12.7292   10.9960   18.4597 C   0  0  0  0  0  0  0  0  0  0  0  0
    9.3798    6.6793   23.6625 C   0  0  0  0  0  0  0  0  0  0  0  0
   14.7425   10.0739   19.0802 O   0  0  0  0  0  0  0  0  0  0  0  0
    5.1894    9.4673   20.7118 C   0  0  0  0  0  0  0  0  0  0  0  0
    7.3773    8.8224   21.4870 C   0  0  0  0  0  0  0  0  0  0  0  0
    8.4391    6.6439   21.0235 C   0  0  0  0  0  0  0  0  0  0  0  0
    9.6494   11.1353   20.4167 C   0  0  0  0  0  0  0  0  0  0  0  0
    8.1431    7.6829   21.9046 C   0  0  0  0  0  0  0  0  0  0  0  0
    7.7796   10.1314   21.5115 N   0  0  0  0  0  0  0  0  0  0  0  0
    9.2768    5.6183   21.4437 C   0  0  0  0  0  0  0  0  0  0  0  0
    8.6315    7.7322   23.1768 C   0  0  0  0  0  0  0  0  0  0  0  0
   13.0537    9.9821   20.5781 C   0  0  0  0  0  0  0  0  0  0  0  0
   10.3850    4.6575   23.2386 O   0  0  0  0  0  0  0  0  0  0  0  0
    4.2069    6.8450   20.7994 C   0  0  0  0  0  0  0  0  0  0  0  0
    3.0726   10.1043   19.8522 O   0  0  0  0  0  0  0  0  0  0  0  0
    5.5057    7.1196   21.1155 C   0  0  0  0  0  0  0  0  0  0  0  0
    7.0367   11.0229   21.9948 O   0  0  0  0  0  0  0  0  0  0  0  0
  1  8  4  0
  1 12  4  0
  2  9  1  0
  2 11  4  0
  2 25  4  0
  3 12  4  0
  3 14  1  0
  3 23  4  0
  4 13  4  0
  4 21  4  0
  4 24  1  0
  5  8  4  0
  5 23  4  0
  6 18  2  0
  7 15  4  0
  7 16  1  0
  7 27  4  0
  8 18  1  0
 10 18  1  0
 10 20  1  0
 11 15  4  0
 11 26  1  0
 13 22  4  0
 16 19  1  0
 16 20  2  0
 17 19  4  0
 17 21  4  0
 19 22  4  0
 20 28  1  0
 25 27  4  0
M  END
$$$$

 Created by Python create_sdf_string function

 28 30  0  0  0  0  0  0  0  0999 V2000
   11.4592   11.2893   18.7941 C   0  0  0  0  0  0  0  0  0  0  0  0
    3.4202    7.9009   20.3866 C   0  0  0  0  0  0  0  0  0  0  0  0
   13.5280   10.3522   19.3586 C   0  0  0  0  0  0  0  0  0  0  0  0
    9.6923    5.6468   22.7891 C   0  0  0  0  0  0  0  0  0  0  0  0
   11.7756   10.2554   20.8841 N   0  0  0  0  0  0  0  0  0  0  0  0
    8.9876   11.9370   19.8757 O   0  0  0  0  0  0  0  0  0  0  0  0
    6.0167    8.4478   21.1089 C   0  0  0  0  0  0  0  0  0  0  0  0
   11.0002   10.8890   20.0262 C   0  0  0  0  0  0  0  0  0  0  0  0
    2.1721    7.7393   20.0315 O   0  0  0  0  0  0  0  0  0  0  0  0
    9.1107   10.3880   21.3769 N   0  0  0  0  0  0  0  0  0  0  0  0
    3.9102    9.2008   20.3124 C   0  0  0  0  0  0  0  0  0  0  0  0
   12.7292   10.9960   18.4597 C   0  0  0  0  0  0  0  0  0  0  0  0
    9.3798    6.6793   23.6625 C   0  0  0  0  0  0  0  0  0  0  0  0
   14.7425   10.0739   19.0802 O   0  0  0  0  0  0  0  0  0  0  0  0
    5.1894    9.4673   20.7118 C   0  0  0  0  0  0  0  0  0  0  0  0
    7.3773    8.8224   21.4870 C   0  0  0  0  0  0  0  0  0  0  0  0
    8.4391    6.6439   21.0235 C   0  0  0  0  0  0  0  0  0  0  0  0
    9.6494   11.1353   20.4167 C   0  0  0  0  0  0  0  0  0  0  0  0
    8.1431    7.6829   21.9046 C   0  0  0  0  0  0  0  0  0  0  0  0
    7.7796   10.1314   21.5115 N   0  0  0  0  0  0  0  0  0  0  0  0
    9.2768    5.6183   21.4437 C   0  0  0  0  0  0  0  0  0  0  0  0
    8.6315    7.7322   23.1768 C   0  0  0  0  0  0  0  0  0  0  0  0
   13.0537    9.9821   20.5781 C   0  0  0  0  0  0  0  0  0  0  0  0
   10.3850    4.6575   23.2386 O   0  0  0  0  0  0  0  0  0  0  0  0
    4.2069    6.8450   20.7994 C   0  0  0  0  0  0  0  0  0  0  0  0
    3.0726   10.1043   19.8522 O   0  0  0  0  0  0  0  0  0  0  0  0
    5.5057    7.1196   21.1155 C   0  0  0  0  0  0  0  0  0  0  0  0
    7.0367   11.0229   21.9948 O   0  0  0  0  0  0  0  0  0  0  0  0
  1  8  4  0
  1 12  4  0
  2  9  1  0
  2 11  4  0
  2 25  4  0
  3 12  4  0
  3 14  1  0
  3 23  4  0
  4 13  4  0
  4 21  4  0
  4 24  1  0
  5  8  4  0
  5 23  4  0
  6 18  2  0
  7 15  4  0
  7 16  1  0
  7 27  4  0
  8 18  1  0
 10 18  1  0
 10 20  1  0
 11 15  4  0
 11 26  1  0
 13 22  4  0
 16 19  1  0
 16 20  2  0
 17 19  4  0
 17 21  4  0
 19 22  4  0
 20 28  1  0
 25 27  4  0
M  END
$$$$

 Created by Python create_sdf_string function

 28 30  0  0  0  0  0  0  0  0999 V2000
   11.4592   11.2893   18.7941 C   0  0  0  0  0  0  0  0  0  0  0  0
    3.4202    7.9009   20.3866 C   0  0  0  0  0  0  0  0  0  0  0  0
   13.5280   10.3522   19.3586 C   0  0  0  0  0  0  0  0  0  0  0  0
    9.6923    5.6468   22.7891 C   0  0  0  0  0  0  0  0  0  0  0  0
   11.7756   10.2554   20.8841 N   0  0  0  0  0  0  0  0  0  0  0  0
    8.9876   11.9370   19.8757 O   0  0  0  0  0  0  0  0  0  0  0  0
    6.0167    8.4478   21.1089 C   0  0  0  0  0  0  0  0  0  0  0  0
   11.0002   10.8890   20.0262 C   0  0  0  0  0  0  0  0  0  0  0  0
    2.1721    7.7393   20.0315 O   0  0  0  0  0  0  0  0  0  0  0  0
    9.1107   10.3880   21.3769 N   0  0  0  0  0  0  0  0  0  0  0  0
    3.9102    9.2008   20.3124 C   0  0  0  0  0  0  0  0  0  0  0  0
   12.7292   10.9960   18.4597 C   0  0  0  0  0  0  0  0  0  0  0  0
    9.3798    6.6793   23.6625 C   0  0  0  0  0  0  0  0  0  0  0  0
   14.7425   10.0739   19.0802 O   0  0  0  0  0  0  0  0  0  0  0  0
    5.1894    9.4673   20.7118 C   0  0  0  0  0  0  0  0  0  0  0  0
    7.3773    8.8224   21.4870 C   0  0  0  0  0  0  0  0  0  0  0  0
    8.4391    6.6439   21.0235 C   0  0  0  0  0  0  0  0  0  0  0  0
    9.6494   11.1353   20.4167 C   0  0  0  0  0  0  0  0  0  0  0  0
    8.1431    7.6829   21.9046 C   0  0  0  0  0  0  0  0  0  0  0  0
    7.7796   10.1314   21.5115 N   0  0  0  0  0  0  0  0  0  0  0  0
    9.2768    5.6183   21.4437 C   0  0  0  0  0  0  0  0  0  0  0  0
    8.6315    7.7322   23.1768 C   0  0  0  0  0  0  0  0  0  0  0  0
   13.0537    9.9821   20.5781 C   0  0  0  0  0  0  0  0  0  0  0  0
   10.3850    4.6575   23.2386 O   0  0  0  0  0  0  0  0  0  0  0  0
    4.2069    6.8450   20.7994 C   0  0  0  0  0  0  0  0  0  0  0  0
    3.0726   10.1043   19.8522 O   0  0  0  0  0  0  0  0  0  0  0  0
    5.5057    7.1196   21.1155 C   0  0  0  0  0  0  0  0  0  0  0  0
    7.0367   11.0229   21.9948 O   0  0  0  0  0  0  0  0  0  0  0  0
  1  8  4  0
  1 12  4  0
  2  9  1  0
  2 11  4  0
  2 25  4  0
  3 12  4  0
  3 14  1  0
  3 23  4  0
  4 13  4  0
  4 21  4  0
  4 24  1  0
  5  8  4  0
  5 23  4  0
  6 18  2  0
  7 15  4  0
  7 16  1  0
  7 27  4  0
  8 18  1  0
 10 18  1  0
 10 20  1  0
 11 15  4  0
 11 26  1  0
 13 22  4  0
 16 19  1  0
 16 20  2  0
 17 19  4  0
 17 21  4  0
 19 22  4  0
 20 28  1  0
 25 27  4  0
M  END
$$$$

 Created by Python create_sdf_string function

 28 30  0  0  0  0  0  0  0  0999 V2000
   11.4592   11.2893   18.7941 C   0  0  0  0  0  0  0  0  0  0  0  0
    3.4202    7.9009   20.3866 C   0  0  0  0  0  0  0  0  0  0  0  0
   13.5280   10.3522   19.3586 C   0  0  0  0  0  0  0  0  0  0  0  0
    9.6923    5.6468   22.7891 C   0  0  0  0  0  0  0  0  0  0  0  0
   11.7756   10.2554   20.8841 N   0  0  0  0  0  0  0  0  0  0  0  0
    8.9876   11.9370   19.8757 O   0  0  0  0  0  0  0  0  0  0  0  0
    6.0167    8.4478   21.1089 C   0  0  0  0  0  0  0  0  0  0  0  0
   11.0002   10.8890   20.0262 C   0  0  0  0  0  0  0  0  0  0  0  0
    2.1721    7.7393   20.0315 O   0  0  0  0  0  0  0  0  0  0  0  0
    9.1107   10.3880   21.3769 N   0  0  0  0  0  0  0  0  0  0  0  0
    3.9102    9.2008   20.3124 C   0  0  0  0  0  0  0  0  0  0  0  0
   12.7292   10.9960   18.4597 C   0  0  0  0  0  0  0  0  0  0  0  0
    9.3798    6.6793   23.6625 C   0  0  0  0  0  0  0  0  0  0  0  0
   14.7425   10.0739   19.0802 O   0  0  0  0  0  0  0  0  0  0  0  0
    5.1894    9.4673   20.7118 C   0  0  0  0  0  0  0  0  0  0  0  0
    7.3773    8.8224   21.4870 C   0  0  0  0  0  0  0  0  0  0  0  0
    8.4391    6.6439   21.0235 C   0  0  0  0  0  0  0  0  0  0  0  0
    9.6494   11.1353   20.4167 C   0  0  0  0  0  0  0  0  0  0  0  0
    8.1431    7.6829   21.9046 C   0  0  0  0  0  0  0  0  0  0  0  0
    7.7796   10.1314   21.5115 N   0  0  0  0  0  0  0  0  0  0  0  0
    9.2768    5.6183   21.4437 C   0  0  0  0  0  0  0  0  0  0  0  0
    8.6315    7.7322   23.1768 C   0  0  0  0  0  0  0  0  0  0  0  0
   13.0537    9.9821   20.5781 C   0  0  0  0  0  0  0  0  0  0  0  0
   10.3850    4.6575   23.2386 O   0  0  0  0  0  0  0  0  0  0  0  0
    4.2069    6.8450   20.7994 C   0  0  0  0  0  0  0  0  0  0  0  0
    3.0726   10.1043   19.8522 O   0  0  0  0  0  0  0  0  0  0  0  0
    5.5057    7.1196   21.1155 C   0  0  0  0  0  0  0  0  0  0  0  0
    7.0367   11.0229   21.9948 O   0  0  0  0  0  0  0  0  0  0  0  0
  1  8  4  0
  1 12  4  0
  2  9  1  0
  2 11  4  0
  2 25  4  0
  3 12  4  0
  3 14  1  0
  3 23  4  0
  4 13  4  0
  4 21  4  0
  4 24  1  0
  5  8  4  0
  5 23  4  0
  6 18  2  0
  7 15  4  0
  7 16  1  0
  7 27  4  0
  8 18  1  0
 10 18  1  0
 10 20  1  0
 11 15  4  0
 11 26  1  0
 13 22  4  0
 16 19  1  0
 16 20  2  0
 17 19  4  0
 17 21  4  0
 19 22  4  0
 20 28  1  0
 25 27  4  0
M  END
$$$$

 Created by Python create_sdf_string function

 28 30  0  0  0  0  0  0  0  0999 V2000
   11.4592   11.2893   18.7941 C   0  0  0  0  0  0  0  0  0  0  0  0
    3.4202    7.9009   20.3866 C   0  0  0  0  0  0  0  0  0  0  0  0
   13.5280   10.3522   19.3586 C   0  0  0  0  0  0  0  0  0  0  0  0
    9.6923    5.6468   22.7891 C   0  0  0  0  0  0  0  0  0  0  0  0
   11.7756   10.2554   20.8841 N   0  0  0  0  0  0  0  0  0  0  0  0
    8.9876   11.9370   19.8757 O   0  0  0  0  0  0  0  0  0  0  0  0
    6.0167    8.4478   21.1089 C   0  0  0  0  0  0  0  0  0  0  0  0
   11.0002   10.8890   20.0262 C   0  0  0  0  0  0  0  0  0  0  0  0
    2.1721    7.7393   20.0315 O   0  0  0  0  0  0  0  0  0  0  0  0
    9.1107   10.3880   21.3769 N   0  0  0  0  0  0  0  0  0  0  0  0
    3.9102    9.2008   20.3124 C   0  0  0  0  0  0  0  0  0  0  0  0
   12.7292   10.9960   18.4597 C   0  0  0  0  0  0  0  0  0  0  0  0
    9.3798    6.6793   23.6625 C   0  0  0  0  0  0  0  0  0  0  0  0
   14.7425   10.0739   19.0802 O   0  0  0  0  0  0  0  0  0  0  0  0
    5.1894    9.4673   20.7118 C   0  0  0  0  0  0  0  0  0  0  0  0
    7.3773    8.8224   21.4870 C   0  0  0  0  0  0  0  0  0  0  0  0
    8.4391    6.6439   21.0235 C   0  0  0  0  0  0  0  0  0  0  0  0
    9.6494   11.1353   20.4167 C   0  0  0  0  0  0  0  0  0  0  0  0
    8.1431    7.6829   21.9046 C   0  0  0  0  0  0  0  0  0  0  0  0
    7.7796   10.1314   21.5115 N   0  0  0  0  0  0  0  0  0  0  0  0
    9.2768    5.6183   21.4437 C   0  0  0  0  0  0  0  0  0  0  0  0
    8.6315    7.7322   23.1768 C   0  0  0  0  0  0  0  0  0  0  0  0
   13.0537    9.9821   20.5781 C   0  0  0  0  0  0  0  0  0  0  0  0
   10.3850    4.6575   23.2386 O   0  0  0  0  0  0  0  0  0  0  0  0
    4.2069    6.8450   20.7994 C   0  0  0  0  0  0  0  0  0  0  0  0
    3.0726   10.1043   19.8522 O   0  0  0  0  0  0  0  0  0  0  0  0
    5.5057    7.1196   21.1155 C   0  0  0  0  0  0  0  0  0  0  0  0
    7.0367   11.0229   21.9948 O   0  0  0  0  0  0  0  0  0  0  0  0
  1  8  4  0
  1 12  4  0
  2  9  1  0
  2 11  4  0
  2 25  4  0
  3 12  4  0
  3 14  1  0
  3 23  4  0
  4 13  4  0
  4 21  4  0
  4 24  1  0
  5  8  4  0
  5 23  4  0
  6 18  2  0
  7 15  4  0
  7 16  1  0
  7 27  4  0
  8 18  1  0
 10 18  1  0
 10 20  1  0
 11 15  4  0
 11 26  1  0
 13 22  4  0
 16 19  1  0
 16 20  2  0
 17 19  4  0
 17 21  4  0
 19 22  4  0
 20 28  1  0
 25 27  4  0
M  END
$$$$

 Created by Python create_sdf_string function

 28 30  0  0  0  0  0  0  0  0999 V2000
   11.4592   11.2893   18.7941 C   0  0  0  0  0  0  0  0  0  0  0  0
    3.4202    7.9009   20.3866 C   0  0  0  0  0  0  0  0  0  0  0  0
   13.5280   10.3522   19.3586 C   0  0  0  0  0  0  0  0  0  0  0  0
    9.6923    5.6468   22.7891 C   0  0  0  0  0  0  0  0  0  0  0  0
   11.7756   10.2554   20.8841 N   0  0  0  0  0  0  0  0  0  0  0  0
    8.9876   11.9370   19.8757 O   0  0  0  0  0  0  0  0  0  0  0  0
    6.0167    8.4478   21.1089 C   0  0  0  0  0  0  0  0  0  0  0  0
   11.0002   10.8890   20.0262 C   0  0  0  0  0  0  0  0  0  0  0  0
    2.1721    7.7393   20.0315 O   0  0  0  0  0  0  0  0  0  0  0  0
    9.1107   10.3880   21.3769 N   0  0  0  0  0  0  0  0  0  0  0  0
    3.9102    9.2008   20.3124 C   0  0  0  0  0  0  0  0  0  0  0  0
   12.7292   10.9960   18.4597 C   0  0  0  0  0  0  0  0  0  0  0  0
    9.3798    6.6793   23.6625 C   0  0  0  0  0  0  0  0  0  0  0  0
   14.7425   10.0739   19.0802 O   0  0  0  0  0  0  0  0  0  0  0  0
    5.1894    9.4673   20.7118 C   0  0  0  0  0  0  0  0  0  0  0  0
    7.3773    8.8224   21.4870 C   0  0  0  0  0  0  0  0  0  0  0  0
    8.4391    6.6439   21.0235 C   0  0  0  0  0  0  0  0  0  0  0  0
    9.6494   11.1353   20.4167 C   0  0  0  0  0  0  0  0  0  0  0  0
    8.1431    7.6829   21.9046 C   0  0  0  0  0  0  0  0  0  0  0  0
    7.7796   10.1314   21.5115 N   0  0  0  0  0  0  0  0  0  0  0  0
    9.2768    5.6183   21.4437 C   0  0  0  0  0  0  0  0  0  0  0  0
    8.6315    7.7322   23.1768 C   0  0  0  0  0  0  0  0  0  0  0  0
   13.0537    9.9821   20.5781 C   0  0  0  0  0  0  0  0  0  0  0  0
   10.3850    4.6575   23.2386 O   0  0  0  0  0  0  0  0  0  0  0  0
    4.2069    6.8450   20.7994 C   0  0  0  0  0  0  0  0  0  0  0  0
    3.0726   10.1043   19.8522 O   0  0  0  0  0  0  0  0  0  0  0  0
    5.5057    7.1196   21.1155 C   0  0  0  0  0  0  0  0  0  0  0  0
    7.0367   11.0229   21.9948 O   0  0  0  0  0  0  0  0  0  0  0  0
  1  8  4  0
  1 12  4  0
  2  9  1  0
  2 11  4  0
  2 25  4  0
  3 12  4  0
  3 14  1  0
  3 23  4  0
  4 13  4  0
  4 21  4  0
  4 24  1  0
  5  8  4  0
  5 23  4  0
  6 18  2  0
  7 15  4  0
  7 16  1  0
  7 27  4  0
  8 18  1  0
 10 18  1  0
 10 20  1  0
 11 15  4  0
 11 26  1  0
 13 22  4  0
 16 19  1  0
 16 20  2  0
 17 19  4  0
 17 21  4  0
 19 22  4  0
 20 28  1  0
 25 27  4  0
M  END
$$$$

 Created by Python create_sdf_string function

 28 30  0  0  0  0  0  0  0  0999 V2000
   11.4592   11.2893   18.7941 C   0  0  0  0  0  0  0  0  0  0  0  0
    3.4202    7.9009   20.3866 C   0  0  0  0  0  0  0  0  0  0  0  0
   13.5280   10.3522   19.3586 C   0  0  0  0  0  0  0  0  0  0  0  0
    9.6923    5.6468   22.7891 C   0  0  0  0  0  0  0  0  0  0  0  0
   11.7756   10.2554   20.8841 N   0  0  0  0  0  0  0  0  0  0  0  0
    8.9876   11.9370   19.8757 O   0  0  0  0  0  0  0  0  0  0  0  0
    6.0167    8.4478   21.1089 C   0  0  0  0  0  0  0  0  0  0  0  0
   11.0002   10.8890   20.0262 C   0  0  0  0  0  0  0  0  0  0  0  0
    2.1721    7.7393   20.0315 O   0  0  0  0  0  0  0  0  0  0  0  0
    9.1107   10.3880   21.3769 N   0  0  0  0  0  0  0  0  0  0  0  0
    3.9102    9.2008   20.3124 C   0  0  0  0  0  0  0  0  0  0  0  0
   12.7292   10.9960   18.4597 C   0  0  0  0  0  0  0  0  0  0  0  0
    9.3798    6.6793   23.6625 C   0  0  0  0  0  0  0  0  0  0  0  0
   14.7425   10.0739   19.0802 O   0  0  0  0  0  0  0  0  0  0  0  0
    5.1894    9.4673   20.7118 C   0  0  0  0  0  0  0  0  0  0  0  0
    7.3773    8.8224   21.4870 C   0  0  0  0  0  0  0  0  0  0  0  0
    8.4391    6.6439   21.0235 C   0  0  0  0  0  0  0  0  0  0  0  0
    9.6494   11.1353   20.4167 C   0  0  0  0  0  0  0  0  0  0  0  0
    8.1431    7.6829   21.9046 C   0  0  0  0  0  0  0  0  0  0  0  0
    7.7796   10.1314   21.5115 N   0  0  0  0  0  0  0  0  0  0  0  0
    9.2768    5.6183   21.4437 C   0  0  0  0  0  0  0  0  0  0  0  0
    8.6315    7.7322   23.1768 C   0  0  0  0  0  0  0  0  0  0  0  0
   13.0537    9.9821   20.5781 C   0  0  0  0  0  0  0  0  0  0  0  0
   10.3850    4.6575   23.2386 O   0  0  0  0  0  0  0  0  0  0  0  0
    4.2069    6.8450   20.7994 C   0  0  0  0  0  0  0  0  0  0  0  0
    3.0726   10.1043   19.8522 O   0  0  0  0  0  0  0  0  0  0  0  0
    5.5057    7.1196   21.1155 C   0  0  0  0  0  0  0  0  0  0  0  0
    7.0367   11.0229   21.9948 O   0  0  0  0  0  0  0  0  0  0  0  0
  1  8  4  0
  1 12  4  0
  2  9  1  0
  2 11  4  0
  2 25  4  0
  3 12  4  0
  3 14  1  0
  3 23  4  0
  4 13  4  0
  4 21  4  0
  4 24  1  0
  5  8  4  0
  5 23  4  0
  6 18  2  0
  7 15  4  0
  7 16  1  0
  7 27  4  0
  8 18  1  0
 10 18  1  0
 10 20  1  0
 11 15  4  0
 11 26  1  0
 13 22  4  0
 16 19  1  0
 16 20  2  0
 17 19  4  0
 17 21  4  0
 19 22  4  0
 20 28  1  0
 25 27  4  0
M  END
$$$$

 Created by Python create_sdf_string function

 28 30  0  0  0  0  0  0  0  0999 V2000
   11.4592   11.2893   18.7941 C   0  0  0  0  0  0  0  0  0  0  0  0
    3.4202    7.9009   20.3866 C   0  0  0  0  0  0  0  0  0  0  0  0
   13.5280   10.3522   19.3586 C   0  0  0  0  0  0  0  0  0  0  0  0
    9.6923    5.6468   22.7891 C   0  0  0  0  0  0  0  0  0  0  0  0
   11.7756   10.2554   20.8841 N   0  0  0  0  0  0  0  0  0  0  0  0
    8.9876   11.9370   19.8757 O   0  0  0  0  0  0  0  0  0  0  0  0
    6.0167    8.4478   21.1089 C   0  0  0  0  0  0  0  0  0  0  0  0
   11.0002   10.8890   20.0262 C   0  0  0  0  0  0  0  0  0  0  0  0
    2.1721    7.7393   20.0315 O   0  0  0  0  0  0  0  0  0  0  0  0
    9.1107   10.3880   21.3769 N   0  0  0  0  0  0  0  0  0  0  0  0
    3.9102    9.2008   20.3124 C   0  0  0  0  0  0  0  0  0  0  0  0
   12.7292   10.9960   18.4597 C   0  0  0  0  0  0  0  0  0  0  0  0
    9.3798    6.6793   23.6625 C   0  0  0  0  0  0  0  0  0  0  0  0
   14.7425   10.0739   19.0802 O   0  0  0  0  0  0  0  0  0  0  0  0
    5.1894    9.4673   20.7118 C   0  0  0  0  0  0  0  0  0  0  0  0
    7.3773    8.8224   21.4870 C   0  0  0  0  0  0  0  0  0  0  0  0
    8.4391    6.6439   21.0235 C   0  0  0  0  0  0  0  0  0  0  0  0
    9.6494   11.1353   20.4167 C   0  0  0  0  0  0  0  0  0  0  0  0
    8.1431    7.6829   21.9046 C   0  0  0  0  0  0  0  0  0  0  0  0
    7.7796   10.1314   21.5115 N   0  0  0  0  0  0  0  0  0  0  0  0
    9.2768    5.6183   21.4437 C   0  0  0  0  0  0  0  0  0  0  0  0
    8.6315    7.7322   23.1768 C   0  0  0  0  0  0  0  0  0  0  0  0
   13.0537    9.9821   20.5781 C   0  0  0  0  0  0  0  0  0  0  0  0
   10.3850    4.6575   23.2386 O   0  0  0  0  0  0  0  0  0  0  0  0
    4.2069    6.8450   20.7994 C   0  0  0  0  0  0  0  0  0  0  0  0
    3.0726   10.1043   19.8522 O   0  0  0  0  0  0  0  0  0  0  0  0
    5.5057    7.1196   21.1155 C   0  0  0  0  0  0  0  0  0  0  0  0
    7.0367   11.0229   21.9948 O   0  0  0  0  0  0  0  0  0  0  0  0
  1  8  4  0
  1 12  4  0
  2  9  1  0
  2 11  4  0
  2 25  4  0
  3 12  4  0
  3 14  1  0
  3 23  4  0
  4 13  4  0
  4 21  4  0
  4 24  1  0
  5  8  4  0
  5 23  4  0
  6 18  2  0
  7 15  4  0
  7 16  1  0
  7 27  4  0
  8 18  1  0
 10 18  1  0
 10 20  1  0
 11 15  4  0
 11 26  1  0
 13 22  4  0
 16 19  1  0
 16 20  2  0
 17 19  4  0
 17 21  4  0
 19 22  4  0
 20 28  1  0
 25 27  4  0
M  END
$$$$

 Created by Python create_sdf_string function

 28 30  0  0  0  0  0  0  0  0999 V2000
   11.4592   11.2893   18.7941 C   0  0  0  0  0  0  0  0  0  0  0  0
    3.4202    7.9009   20.3866 C   0  0  0  0  0  0  0  0  0  0  0  0
   13.5280   10.3522   19.3586 C   0  0  0  0  0  0  0  0  0  0  0  0
    9.6923    5.6468   22.7891 C   0  0  0  0  0  0  0  0  0  0  0  0
   11.7756   10.2554   20.8841 N   0  0  0  0  0  0  0  0  0  0  0  0
    8.9876   11.9370   19.8757 O   0  0  0  0  0  0  0  0  0  0  0  0
    6.0167    8.4478   21.1089 C   0  0  0  0  0  0  0  0  0  0  0  0
   11.0002   10.8890   20.0262 C   0  0  0  0  0  0  0  0  0  0  0  0
    2.1721    7.7393   20.0315 O   0  0  0  0  0  0  0  0  0  0  0  0
    9.1107   10.3880   21.3769 N   0  0  0  0  0  0  0  0  0  0  0  0
    3.9102    9.2008   20.3124 C   0  0  0  0  0  0  0  0  0  0  0  0
   12.7292   10.9960   18.4597 C   0  0  0  0  0  0  0  0  0  0  0  0
    9.3798    6.6793   23.6625 C   0  0  0  0  0  0  0  0  0  0  0  0
   14.7425   10.0739   19.0802 O   0  0  0  0  0  0  0  0  0  0  0  0
    5.1894    9.4673   20.7118 C   0  0  0  0  0  0  0  0  0  0  0  0
    7.3773    8.8224   21.4870 C   0  0  0  0  0  0  0  0  0  0  0  0
    8.4391    6.6439   21.0235 C   0  0  0  0  0  0  0  0  0  0  0  0
    9.6494   11.1353   20.4167 C   0  0  0  0  0  0  0  0  0  0  0  0
    8.1431    7.6829   21.9046 C   0  0  0  0  0  0  0  0  0  0  0  0
    7.7796   10.1314   21.5115 N   0  0  0  0  0  0  0  0  0  0  0  0
    9.2768    5.6183   21.4437 C   0  0  0  0  0  0  0  0  0  0  0  0
    8.6315    7.7322   23.1768 C   0  0  0  0  0  0  0  0  0  0  0  0
   13.0537    9.9821   20.5781 C   0  0  0  0  0  0  0  0  0  0  0  0
   10.3850    4.6575   23.2386 O   0  0  0  0  0  0  0  0  0  0  0  0
    4.2069    6.8450   20.7994 C   0  0  0  0  0  0  0  0  0  0  0  0
    3.0726   10.1043   19.8522 O   0  0  0  0  0  0  0  0  0  0  0  0
    5.5057    7.1196   21.1155 C   0  0  0  0  0  0  0  0  0  0  0  0
    7.0367   11.0229   21.9948 O   0  0  0  0  0  0  0  0  0  0  0  0
  1  8  4  0
  1 12  4  0
  2  9  1  0
  2 11  4  0
  2 25  4  0
  3 12  4  0
  3 14  1  0
  3 23  4  0
  4 13  4  0
  4 21  4  0
  4 24  1  0
  5  8  4  0
  5 23  4  0
  6 18  2  0
  7 15  4  0
  7 16  1  0
  7 27  4  0
  8 18  1  0
 10 18  1  0
 10 20  1  0
 11 15  4  0
 11 26  1  0
 13 22  4  0
 16 19  1  0
 16 20  2  0
 17 19  4  0
 17 21  4  0
 19 22  4  0
 20 28  1  0
 25 27  4  0
M  END
$$$$

 Created by Python create_sdf_string function

 28 30  0  0  0  0  0  0  0  0999 V2000
   11.4592   11.2893   18.7941 C   0  0  0  0  0  0  0  0  0  0  0  0
    3.4202    7.9009   20.3866 C   0  0  0  0  0  0  0  0  0  0  0  0
   13.5280   10.3522   19.3586 C   0  0  0  0  0  0  0  0  0  0  0  0
    9.6923    5.6468   22.7891 C   0  0  0  0  0  0  0  0  0  0  0  0
   11.7756   10.2554   20.8841 N   0  0  0  0  0  0  0  0  0  0  0  0
    8.9876   11.9370   19.8757 O   0  0  0  0  0  0  0  0  0  0  0  0
    6.0167    8.4478   21.1089 C   0  0  0  0  0  0  0  0  0  0  0  0
   11.0002   10.8890   20.0262 C   0  0  0  0  0  0  0  0  0  0  0  0
    2.1721    7.7393   20.0315 O   0  0  0  0  0  0  0  0  0  0  0  0
    9.1107   10.3880   21.3769 N   0  0  0  0  0  0  0  0  0  0  0  0
    3.9102    9.2008   20.3124 C   0  0  0  0  0  0  0  0  0  0  0  0
   12.7292   10.9960   18.4597 C   0  0  0  0  0  0  0  0  0  0  0  0
    9.3798    6.6793   23.6625 C   0  0  0  0  0  0  0  0  0  0  0  0
   14.7425   10.0739   19.0802 O   0  0  0  0  0  0  0  0  0  0  0  0
    5.1894    9.4673   20.7118 C   0  0  0  0  0  0  0  0  0  0  0  0
    7.3773    8.8224   21.4870 C   0  0  0  0  0  0  0  0  0  0  0  0
    8.4391    6.6439   21.0235 C   0  0  0  0  0  0  0  0  0  0  0  0
    9.6494   11.1353   20.4167 C   0  0  0  0  0  0  0  0  0  0  0  0
    8.1431    7.6829   21.9046 C   0  0  0  0  0  0  0  0  0  0  0  0
    7.7796   10.1314   21.5115 N   0  0  0  0  0  0  0  0  0  0  0  0
    9.2768    5.6183   21.4437 C   0  0  0  0  0  0  0  0  0  0  0  0
    8.6315    7.7322   23.1768 C   0  0  0  0  0  0  0  0  0  0  0  0
   13.0537    9.9821   20.5781 C   0  0  0  0  0  0  0  0  0  0  0  0
   10.3850    4.6575   23.2386 O   0  0  0  0  0  0  0  0  0  0  0  0
    4.2069    6.8450   20.7994 C   0  0  0  0  0  0  0  0  0  0  0  0
    3.0726   10.1043   19.8522 O   0  0  0  0  0  0  0  0  0  0  0  0
    5.5057    7.1196   21.1155 C   0  0  0  0  0  0  0  0  0  0  0  0
    7.0367   11.0229   21.9948 O   0  0  0  0  0  0  0  0  0  0  0  0
  1  8  4  0
  1 12  4  0
  2  9  1  0
  2 11  4  0
  2 25  4  0
  3 12  4  0
  3 14  1  0
  3 23  4  0
  4 13  4  0
  4 21  4  0
  4 24  1  0
  5  8  4  0
  5 23  4  0
  6 18  2  0
  7 15  4  0
  7 16  1  0
  7 27  4  0
  8 18  1  0
 10 18  1  0
 10 20  1  0
 11 15  4  0
 11 26  1  0
 13 22  4  0
 16 19  1  0
 16 20  2  0
 17 19  4  0
 17 21  4  0
 19 22  4  0
 20 28  1  0
 25 27  4  0
M  END
$$$$

 Created by Python create_sdf_string function

 28 30  0  0  0  0  0  0  0  0999 V2000
   11.4592   11.2893   18.7941 C   0  0  0  0  0  0  0  0  0  0  0  0
    3.4202    7.9009   20.3866 C   0  0  0  0  0  0  0  0  0  0  0  0
   13.5280   10.3522   19.3586 C   0  0  0  0  0  0  0  0  0  0  0  0
    9.6923    5.6468   22.7891 C   0  0  0  0  0  0  0  0  0  0  0  0
   11.7756   10.2554   20.8841 N   0  0  0  0  0  0  0  0  0  0  0  0
    8.9876   11.9370   19.8757 O   0  0  0  0  0  0  0  0  0  0  0  0
    6.0167    8.4478   21.1089 C   0  0  0  0  0  0  0  0  0  0  0  0
   11.0002   10.8890   20.0262 C   0  0  0  0  0  0  0  0  0  0  0  0
    2.1721    7.7393   20.0315 O   0  0  0  0  0  0  0  0  0  0  0  0
    9.1107   10.3880   21.3769 N   0  0  0  0  0  0  0  0  0  0  0  0
    3.9102    9.2008   20.3124 C   0  0  0  0  0  0  0  0  0  0  0  0
   12.7292   10.9960   18.4597 C   0  0  0  0  0  0  0  0  0  0  0  0
    9.3798    6.6793   23.6625 C   0  0  0  0  0  0  0  0  0  0  0  0
   14.7425   10.0739   19.0802 O   0  0  0  0  0  0  0  0  0  0  0  0
    5.1894    9.4673   20.7118 C   0  0  0  0  0  0  0  0  0  0  0  0
    7.3773    8.8224   21.4870 C   0  0  0  0  0  0  0  0  0  0  0  0
    8.4391    6.6439   21.0235 C   0  0  0  0  0  0  0  0  0  0  0  0
    9.6494   11.1353   20.4167 C   0  0  0  0  0  0  0  0  0  0  0  0
    8.1431    7.6829   21.9046 C   0  0  0  0  0  0  0  0  0  0  0  0
    7.7796   10.1314   21.5115 N   0  0  0  0  0  0  0  0  0  0  0  0
    9.2768    5.6183   21.4437 C   0  0  0  0  0  0  0  0  0  0  0  0
    8.6315    7.7322   23.1768 C   0  0  0  0  0  0  0  0  0  0  0  0
   13.0537    9.9821   20.5781 C   0  0  0  0  0  0  0  0  0  0  0  0
   10.3850    4.6575   23.2386 O   0  0  0  0  0  0  0  0  0  0  0  0
    4.2069    6.8450   20.7994 C   0  0  0  0  0  0  0  0  0  0  0  0
    3.0726   10.1043   19.8522 O   0  0  0  0  0  0  0  0  0  0  0  0
    5.5057    7.1196   21.1155 C   0  0  0  0  0  0  0  0  0  0  0  0
    7.0367   11.0229   21.9948 O   0  0  0  0  0  0  0  0  0  0  0  0
  1  8  4  0
  1 12  4  0
  2  9  1  0
  2 11  4  0
  2 25  4  0
  3 12  4  0
  3 14  1  0
  3 23  4  0
  4 13  4  0
  4 21  4  0
  4 24  1  0
  5  8  4  0
  5 23  4  0
  6 18  2  0
  7 15  4  0
  7 16  1  0
  7 27  4  0
  8 18  1  0
 10 18  1  0
 10 20  1  0
 11 15  4  0
 11 26  1  0
 13 22  4  0
 16 19  1  0
 16 20  2  0
 17 19  4  0
 17 21  4  0
 19 22  4  0
 20 28  1  0
 25 27  4  0
M  END
$$$$

 Created by Python create_sdf_string function

 28 30  0  0  0  0  0  0  0  0999 V2000
   11.4592   11.2893   18.7941 C   0  0  0  0  0  0  0  0  0  0  0  0
    3.4202    7.9009   20.3866 C   0  0  0  0  0  0  0  0  0  0  0  0
   13.5280   10.3522   19.3586 C   0  0  0  0  0  0  0  0  0  0  0  0
    9.6923    5.6468   22.7891 C   0  0  0  0  0  0  0  0  0  0  0  0
   11.7756   10.2554   20.8841 N   0  0  0  0  0  0  0  0  0  0  0  0
    8.9876   11.9370   19.8757 O   0  0  0  0  0  0  0  0  0  0  0  0
    6.0167    8.4478   21.1089 C   0  0  0  0  0  0  0  0  0  0  0  0
   11.0002   10.8890   20.0262 C   0  0  0  0  0  0  0  0  0  0  0  0
    2.1721    7.7393   20.0315 O   0  0  0  0  0  0  0  0  0  0  0  0
    9.1107   10.3880   21.3769 N   0  0  0  0  0  0  0  0  0  0  0  0
    3.9102    9.2008   20.3124 C   0  0  0  0  0  0  0  0  0  0  0  0
   12.7292   10.9960   18.4597 C   0  0  0  0  0  0  0  0  0  0  0  0
    9.3798    6.6793   23.6625 C   0  0  0  0  0  0  0  0  0  0  0  0
   14.7425   10.0739   19.0802 O   0  0  0  0  0  0  0  0  0  0  0  0
    5.1894    9.4673   20.7118 C   0  0  0  0  0  0  0  0  0  0  0  0
    7.3773    8.8224   21.4870 C   0  0  0  0  0  0  0  0  0  0  0  0
    8.4391    6.6439   21.0235 C   0  0  0  0  0  0  0  0  0  0  0  0
    9.6494   11.1353   20.4167 C   0  0  0  0  0  0  0  0  0  0  0  0
    8.1431    7.6829   21.9046 C   0  0  0  0  0  0  0  0  0  0  0  0
    7.7796   10.1314   21.5115 N   0  0  0  0  0  0  0  0  0  0  0  0
    9.2768    5.6183   21.4437 C   0  0  0  0  0  0  0  0  0  0  0  0
    8.6315    7.7322   23.1768 C   0  0  0  0  0  0  0  0  0  0  0  0
   13.0537    9.9821   20.5781 C   0  0  0  0  0  0  0  0  0  0  0  0
   10.3850    4.6575   23.2386 O   0  0  0  0  0  0  0  0  0  0  0  0
    4.2069    6.8450   20.7994 C   0  0  0  0  0  0  0  0  0  0  0  0
    3.0726   10.1043   19.8522 O   0  0  0  0  0  0  0  0  0  0  0  0
    5.5057    7.1196   21.1155 C   0  0  0  0  0  0  0  0  0  0  0  0
    7.0367   11.0229   21.9948 O   0  0  0  0  0  0  0  0  0  0  0  0
  1  8  4  0
  1 12  4  0
  2  9  1  0
  2 11  4  0
  2 25  4  0
  3 12  4  0
  3 14  1  0
  3 23  4  0
  4 13  4  0
  4 21  4  0
  4 24  1  0
  5  8  4  0
  5 23  4  0
  6 18  2  0
  7 15  4  0
  7 16  1  0
  7 27  4  0
  8 18  1  0
 10 18  1  0
 10 20  1  0
 11 15  4  0
 11 26  1  0
 13 22  4  0
 16 19  1  0
 16 20  2  0
 17 19  4  0
 17 21  4  0
 19 22  4  0
 20 28  1  0
 25 27  4  0
M  END
$$$$

 Created by Python create_sdf_string function

 28 30  0  0  0  0  0  0  0  0999 V2000
   11.4592   11.2893   18.7941 C   0  0  0  0  0  0  0  0  0  0  0  0
    3.4202    7.9009   20.3866 C   0  0  0  0  0  0  0  0  0  0  0  0
   13.5280   10.3522   19.3586 C   0  0  0  0  0  0  0  0  0  0  0  0
    9.6923    5.6468   22.7891 C   0  0  0  0  0  0  0  0  0  0  0  0
   11.7756   10.2554   20.8841 N   0  0  0  0  0  0  0  0  0  0  0  0
    8.9876   11.9370   19.8757 O   0  0  0  0  0  0  0  0  0  0  0  0
    6.0167    8.4478   21.1089 C   0  0  0  0  0  0  0  0  0  0  0  0
   11.0002   10.8890   20.0262 C   0  0  0  0  0  0  0  0  0  0  0  0
    2.1721    7.7393   20.0315 O   0  0  0  0  0  0  0  0  0  0  0  0
    9.1107   10.3880   21.3769 N   0  0  0  0  0  0  0  0  0  0  0  0
    3.9102    9.2008   20.3124 C   0  0  0  0  0  0  0  0  0  0  0  0
   12.7292   10.9960   18.4597 C   0  0  0  0  0  0  0  0  0  0  0  0
    9.3798    6.6793   23.6625 C   0  0  0  0  0  0  0  0  0  0  0  0
   14.7425   10.0739   19.0802 O   0  0  0  0  0  0  0  0  0  0  0  0
    5.1894    9.4673   20.7118 C   0  0  0  0  0  0  0  0  0  0  0  0
    7.3773    8.8224   21.4870 C   0  0  0  0  0  0  0  0  0  0  0  0
    8.4391    6.6439   21.0235 C   0  0  0  0  0  0  0  0  0  0  0  0
    9.6494   11.1353   20.4167 C   0  0  0  0  0  0  0  0  0  0  0  0
    8.1431    7.6829   21.9046 C   0  0  0  0  0  0  0  0  0  0  0  0
    7.7796   10.1314   21.5115 N   0  0  0  0  0  0  0  0  0  0  0  0
    9.2768    5.6183   21.4437 C   0  0  0  0  0  0  0  0  0  0  0  0
    8.6315    7.7322   23.1768 C   0  0  0  0  0  0  0  0  0  0  0  0
   13.0537    9.9821   20.5781 C   0  0  0  0  0  0  0  0  0  0  0  0
   10.3850    4.6575   23.2386 O   0  0  0  0  0  0  0  0  0  0  0  0
    4.2069    6.8450   20.7994 C   0  0  0  0  0  0  0  0  0  0  0  0
    3.0726   10.1043   19.8522 O   0  0  0  0  0  0  0  0  0  0  0  0
    5.5057    7.1196   21.1155 C   0  0  0  0  0  0  0  0  0  0  0  0
    7.0367   11.0229   21.9948 O   0  0  0  0  0  0  0  0  0  0  0  0
  1  8  4  0
  1 12  4  0
  2  9  1  0
  2 11  4  0
  2 25  4  0
  3 12  4  0
  3 14  1  0
  3 23  4  0
  4 13  4  0
  4 21  4  0
  4 24  1  0
  5  8  4  0
  5 23  4  0
  6 18  2  0
  7 15  4  0
  7 16  1  0
  7 27  4  0
  8 18  1  0
 10 18  1  0
 10 20  1  0
 11 15  4  0
 11 26  1  0
 13 22  4  0
 16 19  1  0
 16 20  2  0
 17 19  4  0
 17 21  4  0
 19 22  4  0
 20 28  1  0
 25 27  4  0
M  END
$$$$

 Created by Python create_sdf_string function

 28 30  0  0  0  0  0  0  0  0999 V2000
   11.4592   11.2893   18.7941 C   0  0  0  0  0  0  0  0  0  0  0  0
    3.4202    7.9009   20.3866 C   0  0  0  0  0  0  0  0  0  0  0  0
   13.5280   10.3522   19.3586 C   0  0  0  0  0  0  0  0  0  0  0  0
    9.6923    5.6468   22.7891 C   0  0  0  0  0  0  0  0  0  0  0  0
   11.7756   10.2554   20.8841 N   0  0  0  0  0  0  0  0  0  0  0  0
    8.9876   11.9370   19.8757 O   0  0  0  0  0  0  0  0  0  0  0  0
    6.0167    8.4478   21.1089 C   0  0  0  0  0  0  0  0  0  0  0  0
   11.0002   10.8890   20.0262 C   0  0  0  0  0  0  0  0  0  0  0  0
    2.1721    7.7393   20.0315 O   0  0  0  0  0  0  0  0  0  0  0  0
    9.1107   10.3880   21.3769 N   0  0  0  0  0  0  0  0  0  0  0  0
    3.9102    9.2008   20.3124 C   0  0  0  0  0  0  0  0  0  0  0  0
   12.7292   10.9960   18.4597 C   0  0  0  0  0  0  0  0  0  0  0  0
    9.3798    6.6793   23.6625 C   0  0  0  0  0  0  0  0  0  0  0  0
   14.7425   10.0739   19.0802 O   0  0  0  0  0  0  0  0  0  0  0  0
    5.1894    9.4673   20.7118 C   0  0  0  0  0  0  0  0  0  0  0  0
    7.3773    8.8224   21.4870 C   0  0  0  0  0  0  0  0  0  0  0  0
    8.4391    6.6439   21.0235 C   0  0  0  0  0  0  0  0  0  0  0  0
    9.6494   11.1353   20.4167 C   0  0  0  0  0  0  0  0  0  0  0  0
    8.1431    7.6829   21.9046 C   0  0  0  0  0  0  0  0  0  0  0  0
    7.7796   10.1314   21.5115 N   0  0  0  0  0  0  0  0  0  0  0  0
    9.2768    5.6183   21.4437 C   0  0  0  0  0  0  0  0  0  0  0  0
    8.6315    7.7322   23.1768 C   0  0  0  0  0  0  0  0  0  0  0  0
   13.0537    9.9821   20.5781 C   0  0  0  0  0  0  0  0  0  0  0  0
   10.3850    4.6575   23.2386 O   0  0  0  0  0  0  0  0  0  0  0  0
    4.2069    6.8450   20.7994 C   0  0  0  0  0  0  0  0  0  0  0  0
    3.0726   10.1043   19.8522 O   0  0  0  0  0  0  0  0  0  0  0  0
    5.5057    7.1196   21.1155 C   0  0  0  0  0  0  0  0  0  0  0  0
    7.0367   11.0229   21.9948 O   0  0  0  0  0  0  0  0  0  0  0  0
  1  8  4  0
  1 12  4  0
  2  9  1  0
  2 11  4  0
  2 25  4  0
  3 12  4  0
  3 14  1  0
  3 23  4  0
  4 13  4  0
  4 21  4  0
  4 24  1  0
  5  8  4  0
  5 23  4  0
  6 18  2  0
  7 15  4  0
  7 16  1  0
  7 27  4  0
  8 18  1  0
 10 18  1  0
 10 20  1  0
 11 15  4  0
 11 26  1  0
 13 22  4  0
 16 19  1  0
 16 20  2  0
 17 19  4  0
 17 21  4  0
 19 22  4  0
 20 28  1  0
 25 27  4  0
M  END
$$$$

 Created by Python create_sdf_string function

 28 30  0  0  0  0  0  0  0  0999 V2000
   11.4592   11.2893   18.7941 C   0  0  0  0  0  0  0  0  0  0  0  0
    3.4202    7.9009   20.3866 C   0  0  0  0  0  0  0  0  0  0  0  0
   13.5280   10.3522   19.3586 C   0  0  0  0  0  0  0  0  0  0  0  0
    9.6923    5.6468   22.7891 C   0  0  0  0  0  0  0  0  0  0  0  0
   11.7756   10.2554   20.8841 N   0  0  0  0  0  0  0  0  0  0  0  0
    8.9876   11.9370   19.8757 O   0  0  0  0  0  0  0  0  0  0  0  0
    6.0167    8.4478   21.1089 C   0  0  0  0  0  0  0  0  0  0  0  0
   11.0002   10.8890   20.0262 C   0  0  0  0  0  0  0  0  0  0  0  0
    2.1721    7.7393   20.0315 O   0  0  0  0  0  0  0  0  0  0  0  0
    9.1107   10.3880   21.3769 N   0  0  0  0  0  0  0  0  0  0  0  0
    3.9102    9.2008   20.3124 C   0  0  0  0  0  0  0  0  0  0  0  0
   12.7292   10.9960   18.4597 C   0  0  0  0  0  0  0  0  0  0  0  0
    9.3798    6.6793   23.6625 C   0  0  0  0  0  0  0  0  0  0  0  0
   14.7425   10.0739   19.0802 O   0  0  0  0  0  0  0  0  0  0  0  0
    5.1894    9.4673   20.7118 C   0  0  0  0  0  0  0  0  0  0  0  0
    7.3773    8.8224   21.4870 C   0  0  0  0  0  0  0  0  0  0  0  0
    8.4391    6.6439   21.0235 C   0  0  0  0  0  0  0  0  0  0  0  0
    9.6494   11.1353   20.4167 C   0  0  0  0  0  0  0  0  0  0  0  0
    8.1431    7.6829   21.9046 C   0  0  0  0  0  0  0  0  0  0  0  0
    7.7796   10.1314   21.5115 N   0  0  0  0  0  0  0  0  0  0  0  0
    9.2768    5.6183   21.4437 C   0  0  0  0  0  0  0  0  0  0  0  0
    8.6315    7.7322   23.1768 C   0  0  0  0  0  0  0  0  0  0  0  0
   13.0537    9.9821   20.5781 C   0  0  0  0  0  0  0  0  0  0  0  0
   10.3850    4.6575   23.2386 O   0  0  0  0  0  0  0  0  0  0  0  0
    4.2069    6.8450   20.7994 C   0  0  0  0  0  0  0  0  0  0  0  0
    3.0726   10.1043   19.8522 O   0  0  0  0  0  0  0  0  0  0  0  0
    5.5057    7.1196   21.1155 C   0  0  0  0  0  0  0  0  0  0  0  0
    7.0367   11.0229   21.9948 O   0  0  0  0  0  0  0  0  0  0  0  0
  1  8  4  0
  1 12  4  0
  2  9  1  0
  2 11  4  0
  2 25  4  0
  3 12  4  0
  3 14  1  0
  3 23  4  0
  4 13  4  0
  4 21  4  0
  4 24  1  0
  5  8  4  0
  5 23  4  0
  6 18  2  0
  7 15  4  0
  7 16  1  0
  7 27  4  0
  8 18  1  0
 10 18  1  0
 10 20  1  0
 11 15  4  0
 11 26  1  0
 13 22  4  0
 16 19  1  0
 16 20  2  0
 17 19  4  0
 17 21  4  0
 19 22  4  0
 20 28  1  0
 25 27  4  0
M  END
$$$$

 Created by Python create_sdf_string function

 28 30  0  0  0  0  0  0  0  0999 V2000
   11.4592   11.2893   18.7941 C   0  0  0  0  0  0  0  0  0  0  0  0
    3.4202    7.9009   20.3866 C   0  0  0  0  0  0  0  0  0  0  0  0
   13.5280   10.3522   19.3586 C   0  0  0  0  0  0  0  0  0  0  0  0
    9.6923    5.6468   22.7891 C   0  0  0  0  0  0  0  0  0  0  0  0
   11.7756   10.2554   20.8841 N   0  0  0  0  0  0  0  0  0  0  0  0
    8.9876   11.9370   19.8757 O   0  0  0  0  0  0  0  0  0  0  0  0
    6.0167    8.4478   21.1089 C   0  0  0  0  0  0  0  0  0  0  0  0
   11.0002   10.8890   20.0262 C   0  0  0  0  0  0  0  0  0  0  0  0
    2.1721    7.7393   20.0315 O   0  0  0  0  0  0  0  0  0  0  0  0
    9.1107   10.3880   21.3769 N   0  0  0  0  0  0  0  0  0  0  0  0
    3.9102    9.2008   20.3124 C   0  0  0  0  0  0  0  0  0  0  0  0
   12.7292   10.9960   18.4597 C   0  0  0  0  0  0  0  0  0  0  0  0
    9.3798    6.6793   23.6625 C   0  0  0  0  0  0  0  0  0  0  0  0
   14.7425   10.0739   19.0802 O   0  0  0  0  0  0  0  0  0  0  0  0
    5.1894    9.4673   20.7118 C   0  0  0  0  0  0  0  0  0  0  0  0
    7.3773    8.8224   21.4870 C   0  0  0  0  0  0  0  0  0  0  0  0
    8.4391    6.6439   21.0235 C   0  0  0  0  0  0  0  0  0  0  0  0
    9.6494   11.1353   20.4167 C   0  0  0  0  0  0  0  0  0  0  0  0
    8.1431    7.6829   21.9046 C   0  0  0  0  0  0  0  0  0  0  0  0
    7.7796   10.1314   21.5115 N   0  0  0  0  0  0  0  0  0  0  0  0
    9.2768    5.6183   21.4437 C   0  0  0  0  0  0  0  0  0  0  0  0
    8.6315    7.7322   23.1768 C   0  0  0  0  0  0  0  0  0  0  0  0
   13.0537    9.9821   20.5781 C   0  0  0  0  0  0  0  0  0  0  0  0
   10.3850    4.6575   23.2386 O   0  0  0  0  0  0  0  0  0  0  0  0
    4.2069    6.8450   20.7994 C   0  0  0  0  0  0  0  0  0  0  0  0
    3.0726   10.1043   19.8522 O   0  0  0  0  0  0  0  0  0  0  0  0
    5.5057    7.1196   21.1155 C   0  0  0  0  0  0  0  0  0  0  0  0
    7.0367   11.0229   21.9948 O   0  0  0  0  0  0  0  0  0  0  0  0
  1  8  4  0
  1 12  4  0
  2  9  1  0
  2 11  4  0
  2 25  4  0
  3 12  4  0
  3 14  1  0
  3 23  4  0
  4 13  4  0
  4 21  4  0
  4 24  1  0
  5  8  4  0
  5 23  4  0
  6 18  2  0
  7 15  4  0
  7 16  1  0
  7 27  4  0
  8 18  1  0
 10 18  1  0
 10 20  1  0
 11 15  4  0
 11 26  1  0
 13 22  4  0
 16 19  1  0
 16 20  2  0
 17 19  4  0
 17 21  4  0
 19 22  4  0
 20 28  1  0
 25 27  4  0
M  END
$$$$

 Created by Python create_sdf_string function

 28 30  0  0  0  0  0  0  0  0999 V2000
   11.4592   11.2893   18.7941 C   0  0  0  0  0  0  0  0  0  0  0  0
    3.4202    7.9009   20.3866 C   0  0  0  0  0  0  0  0  0  0  0  0
   13.5280   10.3522   19.3586 C   0  0  0  0  0  0  0  0  0  0  0  0
    9.6923    5.6468   22.7891 C   0  0  0  0  0  0  0  0  0  0  0  0
   11.7756   10.2554   20.8841 N   0  0  0  0  0  0  0  0  0  0  0  0
    8.9876   11.9370   19.8757 O   0  0  0  0  0  0  0  0  0  0  0  0
    6.0167    8.4478   21.1089 C   0  0  0  0  0  0  0  0  0  0  0  0
   11.0002   10.8890   20.0262 C   0  0  0  0  0  0  0  0  0  0  0  0
    2.1721    7.7393   20.0315 O   0  0  0  0  0  0  0  0  0  0  0  0
    9.1107   10.3880   21.3769 N   0  0  0  0  0  0  0  0  0  0  0  0
    3.9102    9.2008   20.3124 C   0  0  0  0  0  0  0  0  0  0  0  0
   12.7292   10.9960   18.4597 C   0  0  0  0  0  0  0  0  0  0  0  0
    9.3798    6.6793   23.6625 C   0  0  0  0  0  0  0  0  0  0  0  0
   14.7425   10.0739   19.0802 O   0  0  0  0  0  0  0  0  0  0  0  0
    5.1894    9.4673   20.7118 C   0  0  0  0  0  0  0  0  0  0  0  0
    7.3773    8.8224   21.4870 C   0  0  0  0  0  0  0  0  0  0  0  0
    8.4391    6.6439   21.0235 C   0  0  0  0  0  0  0  0  0  0  0  0
    9.6494   11.1353   20.4167 C   0  0  0  0  0  0  0  0  0  0  0  0
    8.1431    7.6829   21.9046 C   0  0  0  0  0  0  0  0  0  0  0  0
    7.7796   10.1314   21.5115 N   0  0  0  0  0  0  0  0  0  0  0  0
    9.2768    5.6183   21.4437 C   0  0  0  0  0  0  0  0  0  0  0  0
    8.6315    7.7322   23.1768 C   0  0  0  0  0  0  0  0  0  0  0  0
   13.0537    9.9821   20.5781 C   0  0  0  0  0  0  0  0  0  0  0  0
   10.3850    4.6575   23.2386 O   0  0  0  0  0  0  0  0  0  0  0  0
    4.2069    6.8450   20.7994 C   0  0  0  0  0  0  0  0  0  0  0  0
    3.0726   10.1043   19.8522 O   0  0  0  0  0  0  0  0  0  0  0  0
    5.5057    7.1196   21.1155 C   0  0  0  0  0  0  0  0  0  0  0  0
    7.0367   11.0229   21.9948 O   0  0  0  0  0  0  0  0  0  0  0  0
  1  8  4  0
  1 12  4  0
  2  9  1  0
  2 11  4  0
  2 25  4  0
  3 12  4  0
  3 14  1  0
  3 23  4  0
  4 13  4  0
  4 21  4  0
  4 24  1  0
  5  8  4  0
  5 23  4  0
  6 18  2  0
  7 15  4  0
  7 16  1  0
  7 27  4  0
  8 18  1  0
 10 18  1  0
 10 20  1  0
 11 15  4  0
 11 26  1  0
 13 22  4  0
 16 19  1  0
 16 20  2  0
 17 19  4  0
 17 21  4  0
 19 22  4  0
 20 28  1  0
 25 27  4  0
M  END
$$$$

 Created by Python create_sdf_string function

 28 30  0  0  0  0  0  0  0  0999 V2000
   11.4592   11.2893   18.7941 C   0  0  0  0  0  0  0  0  0  0  0  0
    3.4202    7.9009   20.3866 C   0  0  0  0  0  0  0  0  0  0  0  0
   13.5280   10.3522   19.3586 C   0  0  0  0  0  0  0  0  0  0  0  0
    9.6923    5.6468   22.7891 C   0  0  0  0  0  0  0  0  0  0  0  0
   11.7756   10.2554   20.8841 N   0  0  0  0  0  0  0  0  0  0  0  0
    8.9876   11.9370   19.8757 O   0  0  0  0  0  0  0  0  0  0  0  0
    6.0167    8.4478   21.1089 C   0  0  0  0  0  0  0  0  0  0  0  0
   11.0002   10.8890   20.0262 C   0  0  0  0  0  0  0  0  0  0  0  0
    2.1721    7.7393   20.0315 O   0  0  0  0  0  0  0  0  0  0  0  0
    9.1107   10.3880   21.3769 N   0  0  0  0  0  0  0  0  0  0  0  0
    3.9102    9.2008   20.3124 C   0  0  0  0  0  0  0  0  0  0  0  0
   12.7292   10.9960   18.4597 C   0  0  0  0  0  0  0  0  0  0  0  0
    9.3798    6.6793   23.6625 C   0  0  0  0  0  0  0  0  0  0  0  0
   14.7425   10.0739   19.0802 O   0  0  0  0  0  0  0  0  0  0  0  0
    5.1894    9.4673   20.7118 C   0  0  0  0  0  0  0  0  0  0  0  0
    7.3773    8.8224   21.4870 C   0  0  0  0  0  0  0  0  0  0  0  0
    8.4391    6.6439   21.0235 C   0  0  0  0  0  0  0  0  0  0  0  0
    9.6494   11.1353   20.4167 C   0  0  0  0  0  0  0  0  0  0  0  0
    8.1431    7.6829   21.9046 C   0  0  0  0  0  0  0  0  0  0  0  0
    7.7796   10.1314   21.5115 N   0  0  0  0  0  0  0  0  0  0  0  0
    9.2768    5.6183   21.4437 C   0  0  0  0  0  0  0  0  0  0  0  0
    8.6315    7.7322   23.1768 C   0  0  0  0  0  0  0  0  0  0  0  0
   13.0537    9.9821   20.5781 C   0  0  0  0  0  0  0  0  0  0  0  0
   10.3850    4.6575   23.2386 O   0  0  0  0  0  0  0  0  0  0  0  0
    4.2069    6.8450   20.7994 C   0  0  0  0  0  0  0  0  0  0  0  0
    3.0726   10.1043   19.8522 O   0  0  0  0  0  0  0  0  0  0  0  0
    5.5057    7.1196   21.1155 C   0  0  0  0  0  0  0  0  0  0  0  0
    7.0367   11.0229   21.9948 O   0  0  0  0  0  0  0  0  0  0  0  0
  1  8  4  0
  1 12  4  0
  2  9  1  0
  2 11  4  0
  2 25  4  0
  3 12  4  0
  3 14  1  0
  3 23  4  0
  4 13  4  0
  4 21  4  0
  4 24  1  0
  5  8  4  0
  5 23  4  0
  6 18  2  0
  7 15  4  0
  7 16  1  0
  7 27  4  0
  8 18  1  0
 10 18  1  0
 10 20  1  0
 11 15  4  0
 11 26  1  0
 13 22  4  0
 16 19  1  0
 16 20  2  0
 17 19  4  0
 17 21  4  0
 19 22  4  0
 20 28  1  0
 25 27  4  0
M  END
$$$$

 Created by Python create_sdf_string function

 28 30  0  0  0  0  0  0  0  0999 V2000
   11.4592   11.2893   18.7941 C   0  0  0  0  0  0  0  0  0  0  0  0
    3.4202    7.9009   20.3866 C   0  0  0  0  0  0  0  0  0  0  0  0
   13.5280   10.3522   19.3586 C   0  0  0  0  0  0  0  0  0  0  0  0
    9.6923    5.6468   22.7891 C   0  0  0  0  0  0  0  0  0  0  0  0
   11.7756   10.2554   20.8841 N   0  0  0  0  0  0  0  0  0  0  0  0
    8.9876   11.9370   19.8757 O   0  0  0  0  0  0  0  0  0  0  0  0
    6.0167    8.4478   21.1089 C   0  0  0  0  0  0  0  0  0  0  0  0
   11.0002   10.8890   20.0262 C   0  0  0  0  0  0  0  0  0  0  0  0
    2.1721    7.7393   20.0315 O   0  0  0  0  0  0  0  0  0  0  0  0
    9.1107   10.3880   21.3769 N   0  0  0  0  0  0  0  0  0  0  0  0
    3.9102    9.2008   20.3124 C   0  0  0  0  0  0  0  0  0  0  0  0
   12.7292   10.9960   18.4597 C   0  0  0  0  0  0  0  0  0  0  0  0
    9.3798    6.6793   23.6625 C   0  0  0  0  0  0  0  0  0  0  0  0
   14.7425   10.0739   19.0802 O   0  0  0  0  0  0  0  0  0  0  0  0
    5.1894    9.4673   20.7118 C   0  0  0  0  0  0  0  0  0  0  0  0
    7.3773    8.8224   21.4870 C   0  0  0  0  0  0  0  0  0  0  0  0
    8.4391    6.6439   21.0235 C   0  0  0  0  0  0  0  0  0  0  0  0
    9.6494   11.1353   20.4167 C   0  0  0  0  0  0  0  0  0  0  0  0
    8.1431    7.6829   21.9046 C   0  0  0  0  0  0  0  0  0  0  0  0
    7.7796   10.1314   21.5115 N   0  0  0  0  0  0  0  0  0  0  0  0
    9.2768    5.6183   21.4437 C   0  0  0  0  0  0  0  0  0  0  0  0
    8.6315    7.7322   23.1768 C   0  0  0  0  0  0  0  0  0  0  0  0
   13.0537    9.9821   20.5781 C   0  0  0  0  0  0  0  0  0  0  0  0
   10.3850    4.6575   23.2386 O   0  0  0  0  0  0  0  0  0  0  0  0
    4.2069    6.8450   20.7994 C   0  0  0  0  0  0  0  0  0  0  0  0
    3.0726   10.1043   19.8522 O   0  0  0  0  0  0  0  0  0  0  0  0
    5.5057    7.1196   21.1155 C   0  0  0  0  0  0  0  0  0  0  0  0
    7.0367   11.0229   21.9948 O   0  0  0  0  0  0  0  0  0  0  0  0
  1  8  4  0
  1 12  4  0
  2  9  1  0
  2 11  4  0
  2 25  4  0
  3 12  4  0
  3 14  1  0
  3 23  4  0
  4 13  4  0
  4 21  4  0
  4 24  1  0
  5  8  4  0
  5 23  4  0
  6 18  2  0
  7 15  4  0
  7 16  1  0
  7 27  4  0
  8 18  1  0
 10 18  1  0
 10 20  1  0
 11 15  4  0
 11 26  1  0
 13 22  4  0
 16 19  1  0
 16 20  2  0
 17 19  4  0
 17 21  4  0
 19 22  4  0
 20 28  1  0
 25 27  4  0
M  END
$$$$

 Created by Python create_sdf_string function

 28 30  0  0  0  0  0  0  0  0999 V2000
   11.4592   11.2893   18.7941 C   0  0  0  0  0  0  0  0  0  0  0  0
    3.4202    7.9009   20.3866 C   0  0  0  0  0  0  0  0  0  0  0  0
   13.5280   10.3522   19.3586 C   0  0  0  0  0  0  0  0  0  0  0  0
    9.6923    5.6468   22.7891 C   0  0  0  0  0  0  0  0  0  0  0  0
   11.7756   10.2554   20.8841 N   0  0  0  0  0  0  0  0  0  0  0  0
    8.9876   11.9370   19.8757 O   0  0  0  0  0  0  0  0  0  0  0  0
    6.0167    8.4478   21.1089 C   0  0  0  0  0  0  0  0  0  0  0  0
   11.0002   10.8890   20.0262 C   0  0  0  0  0  0  0  0  0  0  0  0
    2.1721    7.7393   20.0315 O   0  0  0  0  0  0  0  0  0  0  0  0
    9.1107   10.3880   21.3769 N   0  0  0  0  0  0  0  0  0  0  0  0
    3.9102    9.2008   20.3124 C   0  0  0  0  0  0  0  0  0  0  0  0
   12.7292   10.9960   18.4597 C   0  0  0  0  0  0  0  0  0  0  0  0
    9.3798    6.6793   23.6625 C   0  0  0  0  0  0  0  0  0  0  0  0
   14.7425   10.0739   19.0802 O   0  0  0  0  0  0  0  0  0  0  0  0
    5.1894    9.4673   20.7118 C   0  0  0  0  0  0  0  0  0  0  0  0
    7.3773    8.8224   21.4870 C   0  0  0  0  0  0  0  0  0  0  0  0
    8.4391    6.6439   21.0235 C   0  0  0  0  0  0  0  0  0  0  0  0
    9.6494   11.1353   20.4167 C   0  0  0  0  0  0  0  0  0  0  0  0
    8.1431    7.6829   21.9046 C   0  0  0  0  0  0  0  0  0  0  0  0
    7.7796   10.1314   21.5115 N   0  0  0  0  0  0  0  0  0  0  0  0
    9.2768    5.6183   21.4437 C   0  0  0  0  0  0  0  0  0  0  0  0
    8.6315    7.7322   23.1768 C   0  0  0  0  0  0  0  0  0  0  0  0
   13.0537    9.9821   20.5781 C   0  0  0  0  0  0  0  0  0  0  0  0
   10.3850    4.6575   23.2386 O   0  0  0  0  0  0  0  0  0  0  0  0
    4.2069    6.8450   20.7994 C   0  0  0  0  0  0  0  0  0  0  0  0
    3.0726   10.1043   19.8522 O   0  0  0  0  0  0  0  0  0  0  0  0
    5.5057    7.1196   21.1155 C   0  0  0  0  0  0  0  0  0  0  0  0
    7.0367   11.0229   21.9948 O   0  0  0  0  0  0  0  0  0  0  0  0
  1  8  4  0
  1 12  4  0
  2  9  1  0
  2 11  4  0
  2 25  4  0
  3 12  4  0
  3 14  1  0
  3 23  4  0
  4 13  4  0
  4 21  4  0
  4 24  1  0
  5  8  4  0
  5 23  4  0
  6 18  2  0
  7 15  4  0
  7 16  1  0
  7 27  4  0
  8 18  1  0
 10 18  1  0
 10 20  1  0
 11 15  4  0
 11 26  1  0
 13 22  4  0
 16 19  1  0
 16 20  2  0
 17 19  4  0
 17 21  4  0
 19 22  4  0
 20 28  1  0
 25 27  4  0
M  END
$$$$

 Created by Python create_sdf_string function

 28 30  0  0  0  0  0  0  0  0999 V2000
   11.4592   11.2893   18.7941 C   0  0  0  0  0  0  0  0  0  0  0  0
    3.4202    7.9009   20.3866 C   0  0  0  0  0  0  0  0  0  0  0  0
   13.5280   10.3522   19.3586 C   0  0  0  0  0  0  0  0  0  0  0  0
    9.6923    5.6468   22.7891 C   0  0  0  0  0  0  0  0  0  0  0  0
   11.7756   10.2554   20.8841 N   0  0  0  0  0  0  0  0  0  0  0  0
    8.9876   11.9370   19.8757 O   0  0  0  0  0  0  0  0  0  0  0  0
    6.0167    8.4478   21.1089 C   0  0  0  0  0  0  0  0  0  0  0  0
   11.0002   10.8890   20.0262 C   0  0  0  0  0  0  0  0  0  0  0  0
    2.1721    7.7393   20.0315 O   0  0  0  0  0  0  0  0  0  0  0  0
    9.1107   10.3880   21.3769 N   0  0  0  0  0  0  0  0  0  0  0  0
    3.9102    9.2008   20.3124 C   0  0  0  0  0  0  0  0  0  0  0  0
   12.7292   10.9960   18.4597 C   0  0  0  0  0  0  0  0  0  0  0  0
    9.3798    6.6793   23.6625 C   0  0  0  0  0  0  0  0  0  0  0  0
   14.7425   10.0739   19.0802 O   0  0  0  0  0  0  0  0  0  0  0  0
    5.1894    9.4673   20.7118 C   0  0  0  0  0  0  0  0  0  0  0  0
    7.3773    8.8224   21.4870 C   0  0  0  0  0  0  0  0  0  0  0  0
    8.4391    6.6439   21.0235 C   0  0  0  0  0  0  0  0  0  0  0  0
    9.6494   11.1353   20.4167 C   0  0  0  0  0  0  0  0  0  0  0  0
    8.1431    7.6829   21.9046 C   0  0  0  0  0  0  0  0  0  0  0  0
    7.7796   10.1314   21.5115 N   0  0  0  0  0  0  0  0  0  0  0  0
    9.2768    5.6183   21.4437 C   0  0  0  0  0  0  0  0  0  0  0  0
    8.6315    7.7322   23.1768 C   0  0  0  0  0  0  0  0  0  0  0  0
   13.0537    9.9821   20.5781 C   0  0  0  0  0  0  0  0  0  0  0  0
   10.3850    4.6575   23.2386 O   0  0  0  0  0  0  0  0  0  0  0  0
    4.2069    6.8450   20.7994 C   0  0  0  0  0  0  0  0  0  0  0  0
    3.0726   10.1043   19.8522 O   0  0  0  0  0  0  0  0  0  0  0  0
    5.5057    7.1196   21.1155 C   0  0  0  0  0  0  0  0  0  0  0  0
    7.0367   11.0229   21.9948 O   0  0  0  0  0  0  0  0  0  0  0  0
  1  8  4  0
  1 12  4  0
  2  9  1  0
  2 11  4  0
  2 25  4  0
  3 12  4  0
  3 14  1  0
  3 23  4  0
  4 13  4  0
  4 21  4  0
  4 24  1  0
  5  8  4  0
  5 23  4  0
  6 18  2  0
  7 15  4  0
  7 16  1  0
  7 27  4  0
  8 18  1  0
 10 18  1  0
 10 20  1  0
 11 15  4  0
 11 26  1  0
 13 22  4  0
 16 19  1  0
 16 20  2  0
 17 19  4  0
 17 21  4  0
 19 22  4  0
 20 28  1  0
 25 27  4  0
M  END
$$$$

 Created by Python create_sdf_string function

 28 30  0  0  0  0  0  0  0  0999 V2000
   11.4592   11.2893   18.7941 C   0  0  0  0  0  0  0  0  0  0  0  0
    3.4202    7.9009   20.3866 C   0  0  0  0  0  0  0  0  0  0  0  0
   13.5280   10.3522   19.3586 C   0  0  0  0  0  0  0  0  0  0  0  0
    9.6923    5.6468   22.7891 C   0  0  0  0  0  0  0  0  0  0  0  0
   11.7756   10.2554   20.8841 N   0  0  0  0  0  0  0  0  0  0  0  0
    8.9876   11.9370   19.8757 O   0  0  0  0  0  0  0  0  0  0  0  0
    6.0167    8.4478   21.1089 C   0  0  0  0  0  0  0  0  0  0  0  0
   11.0002   10.8890   20.0262 C   0  0  0  0  0  0  0  0  0  0  0  0
    2.1721    7.7393   20.0315 O   0  0  0  0  0  0  0  0  0  0  0  0
    9.1107   10.3880   21.3769 N   0  0  0  0  0  0  0  0  0  0  0  0
    3.9102    9.2008   20.3124 C   0  0  0  0  0  0  0  0  0  0  0  0
   12.7292   10.9960   18.4597 C   0  0  0  0  0  0  0  0  0  0  0  0
    9.3798    6.6793   23.6625 C   0  0  0  0  0  0  0  0  0  0  0  0
   14.7425   10.0739   19.0802 O   0  0  0  0  0  0  0  0  0  0  0  0
    5.1894    9.4673   20.7118 C   0  0  0  0  0  0  0  0  0  0  0  0
    7.3773    8.8224   21.4870 C   0  0  0  0  0  0  0  0  0  0  0  0
    8.4391    6.6439   21.0235 C   0  0  0  0  0  0  0  0  0  0  0  0
    9.6494   11.1353   20.4167 C   0  0  0  0  0  0  0  0  0  0  0  0
    8.1431    7.6829   21.9046 C   0  0  0  0  0  0  0  0  0  0  0  0
    7.7796   10.1314   21.5115 N   0  0  0  0  0  0  0  0  0  0  0  0
    9.2768    5.6183   21.4437 C   0  0  0  0  0  0  0  0  0  0  0  0
    8.6315    7.7322   23.1768 C   0  0  0  0  0  0  0  0  0  0  0  0
   13.0537    9.9821   20.5781 C   0  0  0  0  0  0  0  0  0  0  0  0
   10.3850    4.6575   23.2386 O   0  0  0  0  0  0  0  0  0  0  0  0
    4.2069    6.8450   20.7994 C   0  0  0  0  0  0  0  0  0  0  0  0
    3.0726   10.1043   19.8522 O   0  0  0  0  0  0  0  0  0  0  0  0
    5.5057    7.1196   21.1155 C   0  0  0  0  0  0  0  0  0  0  0  0
    7.0367   11.0229   21.9948 O   0  0  0  0  0  0  0  0  0  0  0  0
  1  8  4  0
  1 12  4  0
  2  9  1  0
  2 11  4  0
  2 25  4  0
  3 12  4  0
  3 14  1  0
  3 23  4  0
  4 13  4  0
  4 21  4  0
  4 24  1  0
  5  8  4  0
  5 23  4  0
  6 18  2  0
  7 15  4  0
  7 16  1  0
  7 27  4  0
  8 18  1  0
 10 18  1  0
 10 20  1  0
 11 15  4  0
 11 26  1  0
 13 22  4  0
 16 19  1  0
 16 20  2  0
 17 19  4  0
 17 21  4  0
 19 22  4  0
 20 28  1  0
 25 27  4  0
M  END
$$$$

 Created by Python create_sdf_string function

 28 30  0  0  0  0  0  0  0  0999 V2000
   11.4592   11.2893   18.7941 C   0  0  0  0  0  0  0  0  0  0  0  0
    3.4202    7.9009   20.3866 C   0  0  0  0  0  0  0  0  0  0  0  0
   13.5280   10.3522   19.3586 C   0  0  0  0  0  0  0  0  0  0  0  0
    9.6923    5.6468   22.7891 C   0  0  0  0  0  0  0  0  0  0  0  0
   11.7756   10.2554   20.8841 N   0  0  0  0  0  0  0  0  0  0  0  0
    8.9876   11.9370   19.8757 O   0  0  0  0  0  0  0  0  0  0  0  0
    6.0167    8.4478   21.1089 C   0  0  0  0  0  0  0  0  0  0  0  0
   11.0002   10.8890   20.0262 C   0  0  0  0  0  0  0  0  0  0  0  0
    2.1721    7.7393   20.0315 O   0  0  0  0  0  0  0  0  0  0  0  0
    9.1107   10.3880   21.3769 N   0  0  0  0  0  0  0  0  0  0  0  0
    3.9102    9.2008   20.3124 C   0  0  0  0  0  0  0  0  0  0  0  0
   12.7292   10.9960   18.4597 C   0  0  0  0  0  0  0  0  0  0  0  0
    9.3798    6.6793   23.6625 C   0  0  0  0  0  0  0  0  0  0  0  0
   14.7425   10.0739   19.0802 O   0  0  0  0  0  0  0  0  0  0  0  0
    5.1894    9.4673   20.7118 C   0  0  0  0  0  0  0  0  0  0  0  0
    7.3773    8.8224   21.4870 C   0  0  0  0  0  0  0  0  0  0  0  0
    8.4391    6.6439   21.0235 C   0  0  0  0  0  0  0  0  0  0  0  0
    9.6494   11.1353   20.4167 C   0  0  0  0  0  0  0  0  0  0  0  0
    8.1431    7.6829   21.9046 C   0  0  0  0  0  0  0  0  0  0  0  0
    7.7796   10.1314   21.5115 N   0  0  0  0  0  0  0  0  0  0  0  0
    9.2768    5.6183   21.4437 C   0  0  0  0  0  0  0  0  0  0  0  0
    8.6315    7.7322   23.1768 C   0  0  0  0  0  0  0  0  0  0  0  0
   13.0537    9.9821   20.5781 C   0  0  0  0  0  0  0  0  0  0  0  0
   10.3850    4.6575   23.2386 O   0  0  0  0  0  0  0  0  0  0  0  0
    4.2069    6.8450   20.7994 C   0  0  0  0  0  0  0  0  0  0  0  0
    3.0726   10.1043   19.8522 O   0  0  0  0  0  0  0  0  0  0  0  0
    5.5057    7.1196   21.1155 C   0  0  0  0  0  0  0  0  0  0  0  0
    7.0367   11.0229   21.9948 O   0  0  0  0  0  0  0  0  0  0  0  0
  1  8  4  0
  1 12  4  0
  2  9  1  0
  2 11  4  0
  2 25  4  0
  3 12  4  0
  3 14  1  0
  3 23  4  0
  4 13  4  0
  4 21  4  0
  4 24  1  0
  5  8  4  0
  5 23  4  0
  6 18  2  0
  7 15  4  0
  7 16  1  0
  7 27  4  0
  8 18  1  0
 10 18  1  0
 10 20  1  0
 11 15  4  0
 11 26  1  0
 13 22  4  0
 16 19  1  0
 16 20  2  0
 17 19  4  0
 17 21  4  0
 19 22  4  0
 20 28  1  0
 25 27  4  0
M  END
$$$$

 Created by Python create_sdf_string function

 28 30  0  0  0  0  0  0  0  0999 V2000
   11.4592   11.2893   18.7941 C   0  0  0  0  0  0  0  0  0  0  0  0
    3.4202    7.9009   20.3866 C   0  0  0  0  0  0  0  0  0  0  0  0
   13.5280   10.3522   19.3586 C   0  0  0  0  0  0  0  0  0  0  0  0
    9.6923    5.6468   22.7891 C   0  0  0  0  0  0  0  0  0  0  0  0
   11.7756   10.2554   20.8841 N   0  0  0  0  0  0  0  0  0  0  0  0
    8.9876   11.9370   19.8757 O   0  0  0  0  0  0  0  0  0  0  0  0
    6.0167    8.4478   21.1089 C   0  0  0  0  0  0  0  0  0  0  0  0
   11.0002   10.8890   20.0262 C   0  0  0  0  0  0  0  0  0  0  0  0
    2.1721    7.7393   20.0315 O   0  0  0  0  0  0  0  0  0  0  0  0
    9.1107   10.3880   21.3769 N   0  0  0  0  0  0  0  0  0  0  0  0
    3.9102    9.2008   20.3124 C   0  0  0  0  0  0  0  0  0  0  0  0
   12.7292   10.9960   18.4597 C   0  0  0  0  0  0  0  0  0  0  0  0
    9.3798    6.6793   23.6625 C   0  0  0  0  0  0  0  0  0  0  0  0
   14.7425   10.0739   19.0802 O   0  0  0  0  0  0  0  0  0  0  0  0
    5.1894    9.4673   20.7118 C   0  0  0  0  0  0  0  0  0  0  0  0
    7.3773    8.8224   21.4870 C   0  0  0  0  0  0  0  0  0  0  0  0
    8.4391    6.6439   21.0235 C   0  0  0  0  0  0  0  0  0  0  0  0
    9.6494   11.1353   20.4167 C   0  0  0  0  0  0  0  0  0  0  0  0
    8.1431    7.6829   21.9046 C   0  0  0  0  0  0  0  0  0  0  0  0
    7.7796   10.1314   21.5115 N   0  0  0  0  0  0  0  0  0  0  0  0
    9.2768    5.6183   21.4437 C   0  0  0  0  0  0  0  0  0  0  0  0
    8.6315    7.7322   23.1768 C   0  0  0  0  0  0  0  0  0  0  0  0
   13.0537    9.9821   20.5781 C   0  0  0  0  0  0  0  0  0  0  0  0
   10.3850    4.6575   23.2386 O   0  0  0  0  0  0  0  0  0  0  0  0
    4.2069    6.8450   20.7994 C   0  0  0  0  0  0  0  0  0  0  0  0
    3.0726   10.1043   19.8522 O   0  0  0  0  0  0  0  0  0  0  0  0
    5.5057    7.1196   21.1155 C   0  0  0  0  0  0  0  0  0  0  0  0
    7.0367   11.0229   21.9948 O   0  0  0  0  0  0  0  0  0  0  0  0
  1  8  4  0
  1 12  4  0
  2  9  1  0
  2 11  4  0
  2 25  4  0
  3 12  4  0
  3 14  1  0
  3 23  4  0
  4 13  4  0
  4 21  4  0
  4 24  1  0
  5  8  4  0
  5 23  4  0
  6 18  2  0
  7 15  4  0
  7 16  1  0
  7 27  4  0
  8 18  1  0
 10 18  1  0
 10 20  1  0
 11 15  4  0
 11 26  1  0
 13 22  4  0
 16 19  1  0
 16 20  2  0
 17 19  4  0
 17 21  4  0
 19 22  4  0
 20 28  1  0
 25 27  4  0
M  END
$$$$

 Created by Python create_sdf_string function

 28 30  0  0  0  0  0  0  0  0999 V2000
   11.4592   11.2893   18.7941 C   0  0  0  0  0  0  0  0  0  0  0  0
    3.4202    7.9009   20.3866 C   0  0  0  0  0  0  0  0  0  0  0  0
   13.5280   10.3522   19.3586 C   0  0  0  0  0  0  0  0  0  0  0  0
    9.6923    5.6468   22.7891 C   0  0  0  0  0  0  0  0  0  0  0  0
   11.7756   10.2554   20.8841 N   0  0  0  0  0  0  0  0  0  0  0  0
    8.9876   11.9370   19.8757 O   0  0  0  0  0  0  0  0  0  0  0  0
    6.0167    8.4478   21.1089 C   0  0  0  0  0  0  0  0  0  0  0  0
   11.0002   10.8890   20.0262 C   0  0  0  0  0  0  0  0  0  0  0  0
    2.1721    7.7393   20.0315 O   0  0  0  0  0  0  0  0  0  0  0  0
    9.1107   10.3880   21.3769 N   0  0  0  0  0  0  0  0  0  0  0  0
    3.9102    9.2008   20.3124 C   0  0  0  0  0  0  0  0  0  0  0  0
   12.7292   10.9960   18.4597 C   0  0  0  0  0  0  0  0  0  0  0  0
    9.3798    6.6793   23.6625 C   0  0  0  0  0  0  0  0  0  0  0  0
   14.7425   10.0739   19.0802 O   0  0  0  0  0  0  0  0  0  0  0  0
    5.1894    9.4673   20.7118 C   0  0  0  0  0  0  0  0  0  0  0  0
    7.3773    8.8224   21.4870 C   0  0  0  0  0  0  0  0  0  0  0  0
    8.4391    6.6439   21.0235 C   0  0  0  0  0  0  0  0  0  0  0  0
    9.6494   11.1353   20.4167 C   0  0  0  0  0  0  0  0  0  0  0  0
    8.1431    7.6829   21.9046 C   0  0  0  0  0  0  0  0  0  0  0  0
    7.7796   10.1314   21.5115 N   0  0  0  0  0  0  0  0  0  0  0  0
    9.2768    5.6183   21.4437 C   0  0  0  0  0  0  0  0  0  0  0  0
    8.6315    7.7322   23.1768 C   0  0  0  0  0  0  0  0  0  0  0  0
   13.0537    9.9821   20.5781 C   0  0  0  0  0  0  0  0  0  0  0  0
   10.3850    4.6575   23.2386 O   0  0  0  0  0  0  0  0  0  0  0  0
    4.2069    6.8450   20.7994 C   0  0  0  0  0  0  0  0  0  0  0  0
    3.0726   10.1043   19.8522 O   0  0  0  0  0  0  0  0  0  0  0  0
    5.5057    7.1196   21.1155 C   0  0  0  0  0  0  0  0  0  0  0  0
    7.0367   11.0229   21.9948 O   0  0  0  0  0  0  0  0  0  0  0  0
  1  8  4  0
  1 12  4  0
  2  9  1  0
  2 11  4  0
  2 25  4  0
  3 12  4  0
  3 14  1  0
  3 23  4  0
  4 13  4  0
  4 21  4  0
  4 24  1  0
  5  8  4  0
  5 23  4  0
  6 18  2  0
  7 15  4  0
  7 16  1  0
  7 27  4  0
  8 18  1  0
 10 18  1  0
 10 20  1  0
 11 15  4  0
 11 26  1  0
 13 22  4  0
 16 19  1  0
 16 20  2  0
 17 19  4  0
 17 21  4  0
 19 22  4  0
 20 28  1  0
 25 27  4  0
M  END
$$$$

 Created by Python create_sdf_string function

 28 30  0  0  0  0  0  0  0  0999 V2000
   11.4592   11.2893   18.7941 C   0  0  0  0  0  0  0  0  0  0  0  0
    3.4202    7.9009   20.3866 C   0  0  0  0  0  0  0  0  0  0  0  0
   13.5280   10.3522   19.3586 C   0  0  0  0  0  0  0  0  0  0  0  0
    9.6923    5.6468   22.7891 C   0  0  0  0  0  0  0  0  0  0  0  0
   11.7756   10.2554   20.8841 N   0  0  0  0  0  0  0  0  0  0  0  0
    8.9876   11.9370   19.8757 O   0  0  0  0  0  0  0  0  0  0  0  0
    6.0167    8.4478   21.1089 C   0  0  0  0  0  0  0  0  0  0  0  0
   11.0002   10.8890   20.0262 C   0  0  0  0  0  0  0  0  0  0  0  0
    2.1721    7.7393   20.0315 O   0  0  0  0  0  0  0  0  0  0  0  0
    9.1107   10.3880   21.3769 N   0  0  0  0  0  0  0  0  0  0  0  0
    3.9102    9.2008   20.3124 C   0  0  0  0  0  0  0  0  0  0  0  0
   12.7292   10.9960   18.4597 C   0  0  0  0  0  0  0  0  0  0  0  0
    9.3798    6.6793   23.6625 C   0  0  0  0  0  0  0  0  0  0  0  0
   14.7425   10.0739   19.0802 O   0  0  0  0  0  0  0  0  0  0  0  0
    5.1894    9.4673   20.7118 C   0  0  0  0  0  0  0  0  0  0  0  0
    7.3773    8.8224   21.4870 C   0  0  0  0  0  0  0  0  0  0  0  0
    8.4391    6.6439   21.0235 C   0  0  0  0  0  0  0  0  0  0  0  0
    9.6494   11.1353   20.4167 C   0  0  0  0  0  0  0  0  0  0  0  0
    8.1431    7.6829   21.9046 C   0  0  0  0  0  0  0  0  0  0  0  0
    7.7796   10.1314   21.5115 N   0  0  0  0  0  0  0  0  0  0  0  0
    9.2768    5.6183   21.4437 C   0  0  0  0  0  0  0  0  0  0  0  0
    8.6315    7.7322   23.1768 C   0  0  0  0  0  0  0  0  0  0  0  0
   13.0537    9.9821   20.5781 C   0  0  0  0  0  0  0  0  0  0  0  0
   10.3850    4.6575   23.2386 O   0  0  0  0  0  0  0  0  0  0  0  0
    4.2069    6.8450   20.7994 C   0  0  0  0  0  0  0  0  0  0  0  0
    3.0726   10.1043   19.8522 O   0  0  0  0  0  0  0  0  0  0  0  0
    5.5057    7.1196   21.1155 C   0  0  0  0  0  0  0  0  0  0  0  0
    7.0367   11.0229   21.9948 O   0  0  0  0  0  0  0  0  0  0  0  0
  1  8  4  0
  1 12  4  0
  2  9  1  0
  2 11  4  0
  2 25  4  0
  3 12  4  0
  3 14  1  0
  3 23  4  0
  4 13  4  0
  4 21  4  0
  4 24  1  0
  5  8  4  0
  5 23  4  0
  6 18  2  0
  7 15  4  0
  7 16  1  0
  7 27  4  0
  8 18  1  0
 10 18  1  0
 10 20  1  0
 11 15  4  0
 11 26  1  0
 13 22  4  0
 16 19  1  0
 16 20  2  0
 17 19  4  0
 17 21  4  0
 19 22  4  0
 20 28  1  0
 25 27  4  0
M  END
$$$$

 Created by Python create_sdf_string function

 28 30  0  0  0  0  0  0  0  0999 V2000
   11.4592   11.2893   18.7941 C   0  0  0  0  0  0  0  0  0  0  0  0
    3.4202    7.9009   20.3866 C   0  0  0  0  0  0  0  0  0  0  0  0
   13.5280   10.3522   19.3586 C   0  0  0  0  0  0  0  0  0  0  0  0
    9.6923    5.6468   22.7891 C   0  0  0  0  0  0  0  0  0  0  0  0
   11.7756   10.2554   20.8841 N   0  0  0  0  0  0  0  0  0  0  0  0
    8.9876   11.9370   19.8757 O   0  0  0  0  0  0  0  0  0  0  0  0
    6.0167    8.4478   21.1089 C   0  0  0  0  0  0  0  0  0  0  0  0
   11.0002   10.8890   20.0262 C   0  0  0  0  0  0  0  0  0  0  0  0
    2.1721    7.7393   20.0315 O   0  0  0  0  0  0  0  0  0  0  0  0
    9.1107   10.3880   21.3769 N   0  0  0  0  0  0  0  0  0  0  0  0
    3.9102    9.2008   20.3124 C   0  0  0  0  0  0  0  0  0  0  0  0
   12.7292   10.9960   18.4597 C   0  0  0  0  0  0  0  0  0  0  0  0
    9.3798    6.6793   23.6625 C   0  0  0  0  0  0  0  0  0  0  0  0
   14.7425   10.0739   19.0802 O   0  0  0  0  0  0  0  0  0  0  0  0
    5.1894    9.4673   20.7118 C   0  0  0  0  0  0  0  0  0  0  0  0
    7.3773    8.8224   21.4870 C   0  0  0  0  0  0  0  0  0  0  0  0
    8.4391    6.6439   21.0235 C   0  0  0  0  0  0  0  0  0  0  0  0
    9.6494   11.1353   20.4167 C   0  0  0  0  0  0  0  0  0  0  0  0
    8.1431    7.6829   21.9046 C   0  0  0  0  0  0  0  0  0  0  0  0
    7.7796   10.1314   21.5115 N   0  0  0  0  0  0  0  0  0  0  0  0
    9.2768    5.6183   21.4437 C   0  0  0  0  0  0  0  0  0  0  0  0
    8.6315    7.7322   23.1768 C   0  0  0  0  0  0  0  0  0  0  0  0
   13.0537    9.9821   20.5781 C   0  0  0  0  0  0  0  0  0  0  0  0
   10.3850    4.6575   23.2386 O   0  0  0  0  0  0  0  0  0  0  0  0
    4.2069    6.8450   20.7994 C   0  0  0  0  0  0  0  0  0  0  0  0
    3.0726   10.1043   19.8522 O   0  0  0  0  0  0  0  0  0  0  0  0
    5.5057    7.1196   21.1155 C   0  0  0  0  0  0  0  0  0  0  0  0
    7.0367   11.0229   21.9948 O   0  0  0  0  0  0  0  0  0  0  0  0
  1  8  4  0
  1 12  4  0
  2  9  1  0
  2 11  4  0
  2 25  4  0
  3 12  4  0
  3 14  1  0
  3 23  4  0
  4 13  4  0
  4 21  4  0
  4 24  1  0
  5  8  4  0
  5 23  4  0
  6 18  2  0
  7 15  4  0
  7 16  1  0
  7 27  4  0
  8 18  1  0
 10 18  1  0
 10 20  1  0
 11 15  4  0
 11 26  1  0
 13 22  4  0
 16 19  1  0
 16 20  2  0
 17 19  4  0
 17 21  4  0
 19 22  4  0
 20 28  1  0
 25 27  4  0
M  END
$$$$

 Created by Python create_sdf_string function

 28 30  0  0  0  0  0  0  0  0999 V2000
   11.4592   11.2893   18.7941 C   0  0  0  0  0  0  0  0  0  0  0  0
    3.4202    7.9009   20.3866 C   0  0  0  0  0  0  0  0  0  0  0  0
   13.5280   10.3522   19.3586 C   0  0  0  0  0  0  0  0  0  0  0  0
    9.6923    5.6468   22.7891 C   0  0  0  0  0  0  0  0  0  0  0  0
   11.7756   10.2554   20.8841 N   0  0  0  0  0  0  0  0  0  0  0  0
    8.9876   11.9370   19.8757 O   0  0  0  0  0  0  0  0  0  0  0  0
    6.0167    8.4478   21.1089 C   0  0  0  0  0  0  0  0  0  0  0  0
   11.0002   10.8890   20.0262 C   0  0  0  0  0  0  0  0  0  0  0  0
    2.1721    7.7393   20.0315 O   0  0  0  0  0  0  0  0  0  0  0  0
    9.1107   10.3880   21.3769 N   0  0  0  0  0  0  0  0  0  0  0  0
    3.9102    9.2008   20.3124 C   0  0  0  0  0  0  0  0  0  0  0  0
   12.7292   10.9960   18.4597 C   0  0  0  0  0  0  0  0  0  0  0  0
    9.3798    6.6793   23.6625 C   0  0  0  0  0  0  0  0  0  0  0  0
   14.7425   10.0739   19.0802 O   0  0  0  0  0  0  0  0  0  0  0  0
    5.1894    9.4673   20.7118 C   0  0  0  0  0  0  0  0  0  0  0  0
    7.3773    8.8224   21.4870 C   0  0  0  0  0  0  0  0  0  0  0  0
    8.4391    6.6439   21.0235 C   0  0  0  0  0  0  0  0  0  0  0  0
    9.6494   11.1353   20.4167 C   0  0  0  0  0  0  0  0  0  0  0  0
    8.1431    7.6829   21.9046 C   0  0  0  0  0  0  0  0  0  0  0  0
    7.7796   10.1314   21.5115 N   0  0  0  0  0  0  0  0  0  0  0  0
    9.2768    5.6183   21.4437 C   0  0  0  0  0  0  0  0  0  0  0  0
    8.6315    7.7322   23.1768 C   0  0  0  0  0  0  0  0  0  0  0  0
   13.0537    9.9821   20.5781 C   0  0  0  0  0  0  0  0  0  0  0  0
   10.3850    4.6575   23.2386 O   0  0  0  0  0  0  0  0  0  0  0  0
    4.2069    6.8450   20.7994 C   0  0  0  0  0  0  0  0  0  0  0  0
    3.0726   10.1043   19.8522 O   0  0  0  0  0  0  0  0  0  0  0  0
    5.5057    7.1196   21.1155 C   0  0  0  0  0  0  0  0  0  0  0  0
    7.0367   11.0229   21.9948 O   0  0  0  0  0  0  0  0  0  0  0  0
  1  8  4  0
  1 12  4  0
  2  9  1  0
  2 11  4  0
  2 25  4  0
  3 12  4  0
  3 14  1  0
  3 23  4  0
  4 13  4  0
  4 21  4  0
  4 24  1  0
  5  8  4  0
  5 23  4  0
  6 18  2  0
  7 15  4  0
  7 16  1  0
  7 27  4  0
  8 18  1  0
 10 18  1  0
 10 20  1  0
 11 15  4  0
 11 26  1  0
 13 22  4  0
 16 19  1  0
 16 20  2  0
 17 19  4  0
 17 21  4  0
 19 22  4  0
 20 28  1  0
 25 27  4  0
M  END
$$$$

 Created by Python create_sdf_string function

 28 30  0  0  0  0  0  0  0  0999 V2000
   11.4592   11.2893   18.7941 C   0  0  0  0  0  0  0  0  0  0  0  0
    3.4202    7.9009   20.3866 C   0  0  0  0  0  0  0  0  0  0  0  0
   13.5280   10.3522   19.3586 C   0  0  0  0  0  0  0  0  0  0  0  0
    9.6923    5.6468   22.7891 C   0  0  0  0  0  0  0  0  0  0  0  0
   11.7756   10.2554   20.8841 N   0  0  0  0  0  0  0  0  0  0  0  0
    8.9876   11.9370   19.8757 O   0  0  0  0  0  0  0  0  0  0  0  0
    6.0167    8.4478   21.1089 C   0  0  0  0  0  0  0  0  0  0  0  0
   11.0002   10.8890   20.0262 C   0  0  0  0  0  0  0  0  0  0  0  0
    2.1721    7.7393   20.0315 O   0  0  0  0  0  0  0  0  0  0  0  0
    9.1107   10.3880   21.3769 N   0  0  0  0  0  0  0  0  0  0  0  0
    3.9102    9.2008   20.3124 C   0  0  0  0  0  0  0  0  0  0  0  0
   12.7292   10.9960   18.4597 C   0  0  0  0  0  0  0  0  0  0  0  0
    9.3798    6.6793   23.6625 C   0  0  0  0  0  0  0  0  0  0  0  0
   14.7425   10.0739   19.0802 O   0  0  0  0  0  0  0  0  0  0  0  0
    5.1894    9.4673   20.7118 C   0  0  0  0  0  0  0  0  0  0  0  0
    7.3773    8.8224   21.4870 C   0  0  0  0  0  0  0  0  0  0  0  0
    8.4391    6.6439   21.0235 C   0  0  0  0  0  0  0  0  0  0  0  0
    9.6494   11.1353   20.4167 C   0  0  0  0  0  0  0  0  0  0  0  0
    8.1431    7.6829   21.9046 C   0  0  0  0  0  0  0  0  0  0  0  0
    7.7796   10.1314   21.5115 N   0  0  0  0  0  0  0  0  0  0  0  0
    9.2768    5.6183   21.4437 C   0  0  0  0  0  0  0  0  0  0  0  0
    8.6315    7.7322   23.1768 C   0  0  0  0  0  0  0  0  0  0  0  0
   13.0537    9.9821   20.5781 C   0  0  0  0  0  0  0  0  0  0  0  0
   10.3850    4.6575   23.2386 O   0  0  0  0  0  0  0  0  0  0  0  0
    4.2069    6.8450   20.7994 C   0  0  0  0  0  0  0  0  0  0  0  0
    3.0726   10.1043   19.8522 O   0  0  0  0  0  0  0  0  0  0  0  0
    5.5057    7.1196   21.1155 C   0  0  0  0  0  0  0  0  0  0  0  0
    7.0367   11.0229   21.9948 O   0  0  0  0  0  0  0  0  0  0  0  0
  1  8  4  0
  1 12  4  0
  2  9  1  0
  2 11  4  0
  2 25  4  0
  3 12  4  0
  3 14  1  0
  3 23  4  0
  4 13  4  0
  4 21  4  0
  4 24  1  0
  5  8  4  0
  5 23  4  0
  6 18  2  0
  7 15  4  0
  7 16  1  0
  7 27  4  0
  8 18  1  0
 10 18  1  0
 10 20  1  0
 11 15  4  0
 11 26  1  0
 13 22  4  0
 16 19  1  0
 16 20  2  0
 17 19  4  0
 17 21  4  0
 19 22  4  0
 20 28  1  0
 25 27  4  0
M  END
$$$$

 Created by Python create_sdf_string function

 28 30  0  0  0  0  0  0  0  0999 V2000
   11.4592   11.2893   18.7941 C   0  0  0  0  0  0  0  0  0  0  0  0
    3.4202    7.9009   20.3866 C   0  0  0  0  0  0  0  0  0  0  0  0
   13.5280   10.3522   19.3586 C   0  0  0  0  0  0  0  0  0  0  0  0
    9.6923    5.6468   22.7891 C   0  0  0  0  0  0  0  0  0  0  0  0
   11.7756   10.2554   20.8841 N   0  0  0  0  0  0  0  0  0  0  0  0
    8.9876   11.9370   19.8757 O   0  0  0  0  0  0  0  0  0  0  0  0
    6.0167    8.4478   21.1089 C   0  0  0  0  0  0  0  0  0  0  0  0
   11.0002   10.8890   20.0262 C   0  0  0  0  0  0  0  0  0  0  0  0
    2.1721    7.7393   20.0315 O   0  0  0  0  0  0  0  0  0  0  0  0
    9.1107   10.3880   21.3769 N   0  0  0  0  0  0  0  0  0  0  0  0
    3.9102    9.2008   20.3124 C   0  0  0  0  0  0  0  0  0  0  0  0
   12.7292   10.9960   18.4597 C   0  0  0  0  0  0  0  0  0  0  0  0
    9.3798    6.6793   23.6625 C   0  0  0  0  0  0  0  0  0  0  0  0
   14.7425   10.0739   19.0802 O   0  0  0  0  0  0  0  0  0  0  0  0
    5.1894    9.4673   20.7118 C   0  0  0  0  0  0  0  0  0  0  0  0
    7.3773    8.8224   21.4870 C   0  0  0  0  0  0  0  0  0  0  0  0
    8.4391    6.6439   21.0235 C   0  0  0  0  0  0  0  0  0  0  0  0
    9.6494   11.1353   20.4167 C   0  0  0  0  0  0  0  0  0  0  0  0
    8.1431    7.6829   21.9046 C   0  0  0  0  0  0  0  0  0  0  0  0
    7.7796   10.1314   21.5115 N   0  0  0  0  0  0  0  0  0  0  0  0
    9.2768    5.6183   21.4437 C   0  0  0  0  0  0  0  0  0  0  0  0
    8.6315    7.7322   23.1768 C   0  0  0  0  0  0  0  0  0  0  0  0
   13.0537    9.9821   20.5781 C   0  0  0  0  0  0  0  0  0  0  0  0
   10.3850    4.6575   23.2386 O   0  0  0  0  0  0  0  0  0  0  0  0
    4.2069    6.8450   20.7994 C   0  0  0  0  0  0  0  0  0  0  0  0
    3.0726   10.1043   19.8522 O   0  0  0  0  0  0  0  0  0  0  0  0
    5.5057    7.1196   21.1155 C   0  0  0  0  0  0  0  0  0  0  0  0
    7.0367   11.0229   21.9948 O   0  0  0  0  0  0  0  0  0  0  0  0
  1  8  4  0
  1 12  4  0
  2  9  1  0
  2 11  4  0
  2 25  4  0
  3 12  4  0
  3 14  1  0
  3 23  4  0
  4 13  4  0
  4 21  4  0
  4 24  1  0
  5  8  4  0
  5 23  4  0
  6 18  2  0
  7 15  4  0
  7 16  1  0
  7 27  4  0
  8 18  1  0
 10 18  1  0
 10 20  1  0
 11 15  4  0
 11 26  1  0
 13 22  4  0
 16 19  1  0
 16 20  2  0
 17 19  4  0
 17 21  4  0
 19 22  4  0
 20 28  1  0
 25 27  4  0
M  END
$$$$

 Created by Python create_sdf_string function

 28 30  0  0  0  0  0  0  0  0999 V2000
   11.4592   11.2893   18.7941 C   0  0  0  0  0  0  0  0  0  0  0  0
    3.4202    7.9009   20.3866 C   0  0  0  0  0  0  0  0  0  0  0  0
   13.5280   10.3522   19.3586 C   0  0  0  0  0  0  0  0  0  0  0  0
    9.6923    5.6468   22.7891 C   0  0  0  0  0  0  0  0  0  0  0  0
   11.7756   10.2554   20.8841 N   0  0  0  0  0  0  0  0  0  0  0  0
    8.9876   11.9370   19.8757 O   0  0  0  0  0  0  0  0  0  0  0  0
    6.0167    8.4478   21.1089 C   0  0  0  0  0  0  0  0  0  0  0  0
   11.0002   10.8890   20.0262 C   0  0  0  0  0  0  0  0  0  0  0  0
    2.1721    7.7393   20.0315 O   0  0  0  0  0  0  0  0  0  0  0  0
    9.1107   10.3880   21.3769 N   0  0  0  0  0  0  0  0  0  0  0  0
    3.9102    9.2008   20.3124 C   0  0  0  0  0  0  0  0  0  0  0  0
   12.7292   10.9960   18.4597 C   0  0  0  0  0  0  0  0  0  0  0  0
    9.3798    6.6793   23.6625 C   0  0  0  0  0  0  0  0  0  0  0  0
   14.7425   10.0739   19.0802 O   0  0  0  0  0  0  0  0  0  0  0  0
    5.1894    9.4673   20.7118 C   0  0  0  0  0  0  0  0  0  0  0  0
    7.3773    8.8224   21.4870 C   0  0  0  0  0  0  0  0  0  0  0  0
    8.4391    6.6439   21.0235 C   0  0  0  0  0  0  0  0  0  0  0  0
    9.6494   11.1353   20.4167 C   0  0  0  0  0  0  0  0  0  0  0  0
    8.1431    7.6829   21.9046 C   0  0  0  0  0  0  0  0  0  0  0  0
    7.7796   10.1314   21.5115 N   0  0  0  0  0  0  0  0  0  0  0  0
    9.2768    5.6183   21.4437 C   0  0  0  0  0  0  0  0  0  0  0  0
    8.6315    7.7322   23.1768 C   0  0  0  0  0  0  0  0  0  0  0  0
   13.0537    9.9821   20.5781 C   0  0  0  0  0  0  0  0  0  0  0  0
   10.3850    4.6575   23.2386 O   0  0  0  0  0  0  0  0  0  0  0  0
    4.2069    6.8450   20.7994 C   0  0  0  0  0  0  0  0  0  0  0  0
    3.0726   10.1043   19.8522 O   0  0  0  0  0  0  0  0  0  0  0  0
    5.5057    7.1196   21.1155 C   0  0  0  0  0  0  0  0  0  0  0  0
    7.0367   11.0229   21.9948 O   0  0  0  0  0  0  0  0  0  0  0  0
  1  8  4  0
  1 12  4  0
  2  9  1  0
  2 11  4  0
  2 25  4  0
  3 12  4  0
  3 14  1  0
  3 23  4  0
  4 13  4  0
  4 21  4  0
  4 24  1  0
  5  8  4  0
  5 23  4  0
  6 18  2  0
  7 15  4  0
  7 16  1  0
  7 27  4  0
  8 18  1  0
 10 18  1  0
 10 20  1  0
 11 15  4  0
 11 26  1  0
 13 22  4  0
 16 19  1  0
 16 20  2  0
 17 19  4  0
 17 21  4  0
 19 22  4  0
 20 28  1  0
 25 27  4  0
M  END
$$$$

 Created by Python create_sdf_string function

 28 30  0  0  0  0  0  0  0  0999 V2000
   11.4592   11.2893   18.7941 C   0  0  0  0  0  0  0  0  0  0  0  0
    3.4202    7.9009   20.3866 C   0  0  0  0  0  0  0  0  0  0  0  0
   13.5280   10.3522   19.3586 C   0  0  0  0  0  0  0  0  0  0  0  0
    9.6923    5.6468   22.7891 C   0  0  0  0  0  0  0  0  0  0  0  0
   11.7756   10.2554   20.8841 N   0  0  0  0  0  0  0  0  0  0  0  0
    8.9876   11.9370   19.8757 O   0  0  0  0  0  0  0  0  0  0  0  0
    6.0167    8.4478   21.1089 C   0  0  0  0  0  0  0  0  0  0  0  0
   11.0002   10.8890   20.0262 C   0  0  0  0  0  0  0  0  0  0  0  0
    2.1721    7.7393   20.0315 O   0  0  0  0  0  0  0  0  0  0  0  0
    9.1107   10.3880   21.3769 N   0  0  0  0  0  0  0  0  0  0  0  0
    3.9102    9.2008   20.3124 C   0  0  0  0  0  0  0  0  0  0  0  0
   12.7292   10.9960   18.4597 C   0  0  0  0  0  0  0  0  0  0  0  0
    9.3798    6.6793   23.6625 C   0  0  0  0  0  0  0  0  0  0  0  0
   14.7425   10.0739   19.0802 O   0  0  0  0  0  0  0  0  0  0  0  0
    5.1894    9.4673   20.7118 C   0  0  0  0  0  0  0  0  0  0  0  0
    7.3773    8.8224   21.4870 C   0  0  0  0  0  0  0  0  0  0  0  0
    8.4391    6.6439   21.0235 C   0  0  0  0  0  0  0  0  0  0  0  0
    9.6494   11.1353   20.4167 C   0  0  0  0  0  0  0  0  0  0  0  0
    8.1431    7.6829   21.9046 C   0  0  0  0  0  0  0  0  0  0  0  0
    7.7796   10.1314   21.5115 N   0  0  0  0  0  0  0  0  0  0  0  0
    9.2768    5.6183   21.4437 C   0  0  0  0  0  0  0  0  0  0  0  0
    8.6315    7.7322   23.1768 C   0  0  0  0  0  0  0  0  0  0  0  0
   13.0537    9.9821   20.5781 C   0  0  0  0  0  0  0  0  0  0  0  0
   10.3850    4.6575   23.2386 O   0  0  0  0  0  0  0  0  0  0  0  0
    4.2069    6.8450   20.7994 C   0  0  0  0  0  0  0  0  0  0  0  0
    3.0726   10.1043   19.8522 O   0  0  0  0  0  0  0  0  0  0  0  0
    5.5057    7.1196   21.1155 C   0  0  0  0  0  0  0  0  0  0  0  0
    7.0367   11.0229   21.9948 O   0  0  0  0  0  0  0  0  0  0  0  0
  1  8  4  0
  1 12  4  0
  2  9  1  0
  2 11  4  0
  2 25  4  0
  3 12  4  0
  3 14  1  0
  3 23  4  0
  4 13  4  0
  4 21  4  0
  4 24  1  0
  5  8  4  0
  5 23  4  0
  6 18  2  0
  7 15  4  0
  7 16  1  0
  7 27  4  0
  8 18  1  0
 10 18  1  0
 10 20  1  0
 11 15  4  0
 11 26  1  0
 13 22  4  0
 16 19  1  0
 16 20  2  0
 17 19  4  0
 17 21  4  0
 19 22  4  0
 20 28  1  0
 25 27  4  0
M  END
$$$$

 Created by Python create_sdf_string function

 28 30  0  0  0  0  0  0  0  0999 V2000
   11.4592   11.2893   18.7941 C   0  0  0  0  0  0  0  0  0  0  0  0
    3.4202    7.9009   20.3866 C   0  0  0  0  0  0  0  0  0  0  0  0
   13.5280   10.3522   19.3586 C   0  0  0  0  0  0  0  0  0  0  0  0
    9.6923    5.6468   22.7891 C   0  0  0  0  0  0  0  0  0  0  0  0
   11.7756   10.2554   20.8841 N   0  0  0  0  0  0  0  0  0  0  0  0
    8.9876   11.9370   19.8757 O   0  0  0  0  0  0  0  0  0  0  0  0
    6.0167    8.4478   21.1089 C   0  0  0  0  0  0  0  0  0  0  0  0
   11.0002   10.8890   20.0262 C   0  0  0  0  0  0  0  0  0  0  0  0
    2.1721    7.7393   20.0315 O   0  0  0  0  0  0  0  0  0  0  0  0
    9.1107   10.3880   21.3769 N   0  0  0  0  0  0  0  0  0  0  0  0
    3.9102    9.2008   20.3124 C   0  0  0  0  0  0  0  0  0  0  0  0
   12.7292   10.9960   18.4597 C   0  0  0  0  0  0  0  0  0  0  0  0
    9.3798    6.6793   23.6625 C   0  0  0  0  0  0  0  0  0  0  0  0
   14.7425   10.0739   19.0802 O   0  0  0  0  0  0  0  0  0  0  0  0
    5.1894    9.4673   20.7118 C   0  0  0  0  0  0  0  0  0  0  0  0
    7.3773    8.8224   21.4870 C   0  0  0  0  0  0  0  0  0  0  0  0
    8.4391    6.6439   21.0235 C   0  0  0  0  0  0  0  0  0  0  0  0
    9.6494   11.1353   20.4167 C   0  0  0  0  0  0  0  0  0  0  0  0
    8.1431    7.6829   21.9046 C   0  0  0  0  0  0  0  0  0  0  0  0
    7.7796   10.1314   21.5115 N   0  0  0  0  0  0  0  0  0  0  0  0
    9.2768    5.6183   21.4437 C   0  0  0  0  0  0  0  0  0  0  0  0
    8.6315    7.7322   23.1768 C   0  0  0  0  0  0  0  0  0  0  0  0
   13.0537    9.9821   20.5781 C   0  0  0  0  0  0  0  0  0  0  0  0
   10.3850    4.6575   23.2386 O   0  0  0  0  0  0  0  0  0  0  0  0
    4.2069    6.8450   20.7994 C   0  0  0  0  0  0  0  0  0  0  0  0
    3.0726   10.1043   19.8522 O   0  0  0  0  0  0  0  0  0  0  0  0
    5.5057    7.1196   21.1155 C   0  0  0  0  0  0  0  0  0  0  0  0
    7.0367   11.0229   21.9948 O   0  0  0  0  0  0  0  0  0  0  0  0
  1  8  4  0
  1 12  4  0
  2  9  1  0
  2 11  4  0
  2 25  4  0
  3 12  4  0
  3 14  1  0
  3 23  4  0
  4 13  4  0
  4 21  4  0
  4 24  1  0
  5  8  4  0
  5 23  4  0
  6 18  2  0
  7 15  4  0
  7 16  1  0
  7 27  4  0
  8 18  1  0
 10 18  1  0
 10 20  1  0
 11 15  4  0
 11 26  1  0
 13 22  4  0
 16 19  1  0
 16 20  2  0
 17 19  4  0
 17 21  4  0
 19 22  4  0
 20 28  1  0
 25 27  4  0
M  END
$$$$

 Created by Python create_sdf_string function

 28 30  0  0  0  0  0  0  0  0999 V2000
   11.4592   11.2893   18.7941 C   0  0  0  0  0  0  0  0  0  0  0  0
    3.4202    7.9009   20.3866 C   0  0  0  0  0  0  0  0  0  0  0  0
   13.5280   10.3522   19.3586 C   0  0  0  0  0  0  0  0  0  0  0  0
    9.6923    5.6468   22.7891 C   0  0  0  0  0  0  0  0  0  0  0  0
   11.7756   10.2554   20.8841 N   0  0  0  0  0  0  0  0  0  0  0  0
    8.9876   11.9370   19.8757 O   0  0  0  0  0  0  0  0  0  0  0  0
    6.0167    8.4478   21.1089 C   0  0  0  0  0  0  0  0  0  0  0  0
   11.0002   10.8890   20.0262 C   0  0  0  0  0  0  0  0  0  0  0  0
    2.1721    7.7393   20.0315 O   0  0  0  0  0  0  0  0  0  0  0  0
    9.1107   10.3880   21.3769 N   0  0  0  0  0  0  0  0  0  0  0  0
    3.9102    9.2008   20.3124 C   0  0  0  0  0  0  0  0  0  0  0  0
   12.7292   10.9960   18.4597 C   0  0  0  0  0  0  0  0  0  0  0  0
    9.3798    6.6793   23.6625 C   0  0  0  0  0  0  0  0  0  0  0  0
   14.7425   10.0739   19.0802 O   0  0  0  0  0  0  0  0  0  0  0  0
    5.1894    9.4673   20.7118 C   0  0  0  0  0  0  0  0  0  0  0  0
    7.3773    8.8224   21.4870 C   0  0  0  0  0  0  0  0  0  0  0  0
    8.4391    6.6439   21.0235 C   0  0  0  0  0  0  0  0  0  0  0  0
    9.6494   11.1353   20.4167 C   0  0  0  0  0  0  0  0  0  0  0  0
    8.1431    7.6829   21.9046 C   0  0  0  0  0  0  0  0  0  0  0  0
    7.7796   10.1314   21.5115 N   0  0  0  0  0  0  0  0  0  0  0  0
    9.2768    5.6183   21.4437 C   0  0  0  0  0  0  0  0  0  0  0  0
    8.6315    7.7322   23.1768 C   0  0  0  0  0  0  0  0  0  0  0  0
   13.0537    9.9821   20.5781 C   0  0  0  0  0  0  0  0  0  0  0  0
   10.3850    4.6575   23.2386 O   0  0  0  0  0  0  0  0  0  0  0  0
    4.2069    6.8450   20.7994 C   0  0  0  0  0  0  0  0  0  0  0  0
    3.0726   10.1043   19.8522 O   0  0  0  0  0  0  0  0  0  0  0  0
    5.5057    7.1196   21.1155 C   0  0  0  0  0  0  0  0  0  0  0  0
    7.0367   11.0229   21.9948 O   0  0  0  0  0  0  0  0  0  0  0  0
  1  8  4  0
  1 12  4  0
  2  9  1  0
  2 11  4  0
  2 25  4  0
  3 12  4  0
  3 14  1  0
  3 23  4  0
  4 13  4  0
  4 21  4  0
  4 24  1  0
  5  8  4  0
  5 23  4  0
  6 18  2  0
  7 15  4  0
  7 16  1  0
  7 27  4  0
  8 18  1  0
 10 18  1  0
 10 20  1  0
 11 15  4  0
 11 26  1  0
 13 22  4  0
 16 19  1  0
 16 20  2  0
 17 19  4  0
 17 21  4  0
 19 22  4  0
 20 28  1  0
 25 27  4  0
M  END
$$$$

 Created by Python create_sdf_string function

 28 30  0  0  0  0  0  0  0  0999 V2000
   11.4592   11.2893   18.7941 C   0  0  0  0  0  0  0  0  0  0  0  0
    3.4202    7.9009   20.3866 C   0  0  0  0  0  0  0  0  0  0  0  0
   13.5280   10.3522   19.3586 C   0  0  0  0  0  0  0  0  0  0  0  0
    9.6923    5.6468   22.7891 C   0  0  0  0  0  0  0  0  0  0  0  0
   11.7756   10.2554   20.8841 N   0  0  0  0  0  0  0  0  0  0  0  0
    8.9876   11.9370   19.8757 O   0  0  0  0  0  0  0  0  0  0  0  0
    6.0167    8.4478   21.1089 C   0  0  0  0  0  0  0  0  0  0  0  0
   11.0002   10.8890   20.0262 C   0  0  0  0  0  0  0  0  0  0  0  0
    2.1721    7.7393   20.0315 O   0  0  0  0  0  0  0  0  0  0  0  0
    9.1107   10.3880   21.3769 N   0  0  0  0  0  0  0  0  0  0  0  0
    3.9102    9.2008   20.3124 C   0  0  0  0  0  0  0  0  0  0  0  0
   12.7292   10.9960   18.4597 C   0  0  0  0  0  0  0  0  0  0  0  0
    9.3798    6.6793   23.6625 C   0  0  0  0  0  0  0  0  0  0  0  0
   14.7425   10.0739   19.0802 O   0  0  0  0  0  0  0  0  0  0  0  0
    5.1894    9.4673   20.7118 C   0  0  0  0  0  0  0  0  0  0  0  0
    7.3773    8.8224   21.4870 C   0  0  0  0  0  0  0  0  0  0  0  0
    8.4391    6.6439   21.0235 C   0  0  0  0  0  0  0  0  0  0  0  0
    9.6494   11.1353   20.4167 C   0  0  0  0  0  0  0  0  0  0  0  0
    8.1431    7.6829   21.9046 C   0  0  0  0  0  0  0  0  0  0  0  0
    7.7796   10.1314   21.5115 N   0  0  0  0  0  0  0  0  0  0  0  0
    9.2768    5.6183   21.4437 C   0  0  0  0  0  0  0  0  0  0  0  0
    8.6315    7.7322   23.1768 C   0  0  0  0  0  0  0  0  0  0  0  0
   13.0537    9.9821   20.5781 C   0  0  0  0  0  0  0  0  0  0  0  0
   10.3850    4.6575   23.2386 O   0  0  0  0  0  0  0  0  0  0  0  0
    4.2069    6.8450   20.7994 C   0  0  0  0  0  0  0  0  0  0  0  0
    3.0726   10.1043   19.8522 O   0  0  0  0  0  0  0  0  0  0  0  0
    5.5057    7.1196   21.1155 C   0  0  0  0  0  0  0  0  0  0  0  0
    7.0367   11.0229   21.9948 O   0  0  0  0  0  0  0  0  0  0  0  0
  1  8  4  0
  1 12  4  0
  2  9  1  0
  2 11  4  0
  2 25  4  0
  3 12  4  0
  3 14  1  0
  3 23  4  0
  4 13  4  0
  4 21  4  0
  4 24  1  0
  5  8  4  0
  5 23  4  0
  6 18  2  0
  7 15  4  0
  7 16  1  0
  7 27  4  0
  8 18  1  0
 10 18  1  0
 10 20  1  0
 11 15  4  0
 11 26  1  0
 13 22  4  0
 16 19  1  0
 16 20  2  0
 17 19  4  0
 17 21  4  0
 19 22  4  0
 20 28  1  0
 25 27  4  0
M  END
$$$$

 Created by Python create_sdf_string function

 28 30  0  0  0  0  0  0  0  0999 V2000
   11.4592   11.2893   18.7941 C   0  0  0  0  0  0  0  0  0  0  0  0
    3.4202    7.9009   20.3866 C   0  0  0  0  0  0  0  0  0  0  0  0
   13.5280   10.3522   19.3586 C   0  0  0  0  0  0  0  0  0  0  0  0
    9.6923    5.6468   22.7891 C   0  0  0  0  0  0  0  0  0  0  0  0
   11.7756   10.2554   20.8841 N   0  0  0  0  0  0  0  0  0  0  0  0
    8.9876   11.9370   19.8757 O   0  0  0  0  0  0  0  0  0  0  0  0
    6.0167    8.4478   21.1089 C   0  0  0  0  0  0  0  0  0  0  0  0
   11.0002   10.8890   20.0262 C   0  0  0  0  0  0  0  0  0  0  0  0
    2.1721    7.7393   20.0315 O   0  0  0  0  0  0  0  0  0  0  0  0
    9.1107   10.3880   21.3769 N   0  0  0  0  0  0  0  0  0  0  0  0
    3.9102    9.2008   20.3124 C   0  0  0  0  0  0  0  0  0  0  0  0
   12.7292   10.9960   18.4597 C   0  0  0  0  0  0  0  0  0  0  0  0
    9.3798    6.6793   23.6625 C   0  0  0  0  0  0  0  0  0  0  0  0
   14.7425   10.0739   19.0802 O   0  0  0  0  0  0  0  0  0  0  0  0
    5.1894    9.4673   20.7118 C   0  0  0  0  0  0  0  0  0  0  0  0
    7.3773    8.8224   21.4870 C   0  0  0  0  0  0  0  0  0  0  0  0
    8.4391    6.6439   21.0235 C   0  0  0  0  0  0  0  0  0  0  0  0
    9.6494   11.1353   20.4167 C   0  0  0  0  0  0  0  0  0  0  0  0
    8.1431    7.6829   21.9046 C   0  0  0  0  0  0  0  0  0  0  0  0
    7.7796   10.1314   21.5115 N   0  0  0  0  0  0  0  0  0  0  0  0
    9.2768    5.6183   21.4437 C   0  0  0  0  0  0  0  0  0  0  0  0
    8.6315    7.7322   23.1768 C   0  0  0  0  0  0  0  0  0  0  0  0
   13.0537    9.9821   20.5781 C   0  0  0  0  0  0  0  0  0  0  0  0
   10.3850    4.6575   23.2386 O   0  0  0  0  0  0  0  0  0  0  0  0
    4.2069    6.8450   20.7994 C   0  0  0  0  0  0  0  0  0  0  0  0
    3.0726   10.1043   19.8522 O   0  0  0  0  0  0  0  0  0  0  0  0
    5.5057    7.1196   21.1155 C   0  0  0  0  0  0  0  0  0  0  0  0
    7.0367   11.0229   21.9948 O   0  0  0  0  0  0  0  0  0  0  0  0
  1  8  4  0
  1 12  4  0
  2  9  1  0
  2 11  4  0
  2 25  4  0
  3 12  4  0
  3 14  1  0
  3 23  4  0
  4 13  4  0
  4 21  4  0
  4 24  1  0
  5  8  4  0
  5 23  4  0
  6 18  2  0
  7 15  4  0
  7 16  1  0
  7 27  4  0
  8 18  1  0
 10 18  1  0
 10 20  1  0
 11 15  4  0
 11 26  1  0
 13 22  4  0
 16 19  1  0
 16 20  2  0
 17 19  4  0
 17 21  4  0
 19 22  4  0
 20 28  1  0
 25 27  4  0
M  END
$$$$

 Created by Python create_sdf_string function

 28 30  0  0  0  0  0  0  0  0999 V2000
   11.4592   11.2893   18.7941 C   0  0  0  0  0  0  0  0  0  0  0  0
    3.4202    7.9009   20.3866 C   0  0  0  0  0  0  0  0  0  0  0  0
   13.5280   10.3522   19.3586 C   0  0  0  0  0  0  0  0  0  0  0  0
    9.6923    5.6468   22.7891 C   0  0  0  0  0  0  0  0  0  0  0  0
   11.7756   10.2554   20.8841 N   0  0  0  0  0  0  0  0  0  0  0  0
    8.9876   11.9370   19.8757 O   0  0  0  0  0  0  0  0  0  0  0  0
    6.0167    8.4478   21.1089 C   0  0  0  0  0  0  0  0  0  0  0  0
   11.0002   10.8890   20.0262 C   0  0  0  0  0  0  0  0  0  0  0  0
    2.1721    7.7393   20.0315 O   0  0  0  0  0  0  0  0  0  0  0  0
    9.1107   10.3880   21.3769 N   0  0  0  0  0  0  0  0  0  0  0  0
    3.9102    9.2008   20.3124 C   0  0  0  0  0  0  0  0  0  0  0  0
   12.7292   10.9960   18.4597 C   0  0  0  0  0  0  0  0  0  0  0  0
    9.3798    6.6793   23.6625 C   0  0  0  0  0  0  0  0  0  0  0  0
   14.7425   10.0739   19.0802 O   0  0  0  0  0  0  0  0  0  0  0  0
    5.1894    9.4673   20.7118 C   0  0  0  0  0  0  0  0  0  0  0  0
    7.3773    8.8224   21.4870 C   0  0  0  0  0  0  0  0  0  0  0  0
    8.4391    6.6439   21.0235 C   0  0  0  0  0  0  0  0  0  0  0  0
    9.6494   11.1353   20.4167 C   0  0  0  0  0  0  0  0  0  0  0  0
    8.1431    7.6829   21.9046 C   0  0  0  0  0  0  0  0  0  0  0  0
    7.7796   10.1314   21.5115 N   0  0  0  0  0  0  0  0  0  0  0  0
    9.2768    5.6183   21.4437 C   0  0  0  0  0  0  0  0  0  0  0  0
    8.6315    7.7322   23.1768 C   0  0  0  0  0  0  0  0  0  0  0  0
   13.0537    9.9821   20.5781 C   0  0  0  0  0  0  0  0  0  0  0  0
   10.3850    4.6575   23.2386 O   0  0  0  0  0  0  0  0  0  0  0  0
    4.2069    6.8450   20.7994 C   0  0  0  0  0  0  0  0  0  0  0  0
    3.0726   10.1043   19.8522 O   0  0  0  0  0  0  0  0  0  0  0  0
    5.5057    7.1196   21.1155 C   0  0  0  0  0  0  0  0  0  0  0  0
    7.0367   11.0229   21.9948 O   0  0  0  0  0  0  0  0  0  0  0  0
  1  8  4  0
  1 12  4  0
  2  9  1  0
  2 11  4  0
  2 25  4  0
  3 12  4  0
  3 14  1  0
  3 23  4  0
  4 13  4  0
  4 21  4  0
  4 24  1  0
  5  8  4  0
  5 23  4  0
  6 18  2  0
  7 15  4  0
  7 16  1  0
  7 27  4  0
  8 18  1  0
 10 18  1  0
 10 20  1  0
 11 15  4  0
 11 26  1  0
 13 22  4  0
 16 19  1  0
 16 20  2  0
 17 19  4  0
 17 21  4  0
 19 22  4  0
 20 28  1  0
 25 27  4  0
M  END
$$$$

 Created by Python create_sdf_string function

 28 30  0  0  0  0  0  0  0  0999 V2000
   11.4592   11.2893   18.7941 C   0  0  0  0  0  0  0  0  0  0  0  0
    3.4202    7.9009   20.3866 C   0  0  0  0  0  0  0  0  0  0  0  0
   13.5280   10.3522   19.3586 C   0  0  0  0  0  0  0  0  0  0  0  0
    9.6923    5.6468   22.7891 C   0  0  0  0  0  0  0  0  0  0  0  0
   11.7756   10.2554   20.8841 N   0  0  0  0  0  0  0  0  0  0  0  0
    8.9876   11.9370   19.8757 O   0  0  0  0  0  0  0  0  0  0  0  0
    6.0167    8.4478   21.1089 C   0  0  0  0  0  0  0  0  0  0  0  0
   11.0002   10.8890   20.0262 C   0  0  0  0  0  0  0  0  0  0  0  0
    2.1721    7.7393   20.0315 O   0  0  0  0  0  0  0  0  0  0  0  0
    9.1107   10.3880   21.3769 N   0  0  0  0  0  0  0  0  0  0  0  0
    3.9102    9.2008   20.3124 C   0  0  0  0  0  0  0  0  0  0  0  0
   12.7292   10.9960   18.4597 C   0  0  0  0  0  0  0  0  0  0  0  0
    9.3798    6.6793   23.6625 C   0  0  0  0  0  0  0  0  0  0  0  0
   14.7425   10.0739   19.0802 O   0  0  0  0  0  0  0  0  0  0  0  0
    5.1894    9.4673   20.7118 C   0  0  0  0  0  0  0  0  0  0  0  0
    7.3773    8.8224   21.4870 C   0  0  0  0  0  0  0  0  0  0  0  0
    8.4391    6.6439   21.0235 C   0  0  0  0  0  0  0  0  0  0  0  0
    9.6494   11.1353   20.4167 C   0  0  0  0  0  0  0  0  0  0  0  0
    8.1431    7.6829   21.9046 C   0  0  0  0  0  0  0  0  0  0  0  0
    7.7796   10.1314   21.5115 N   0  0  0  0  0  0  0  0  0  0  0  0
    9.2768    5.6183   21.4437 C   0  0  0  0  0  0  0  0  0  0  0  0
    8.6315    7.7322   23.1768 C   0  0  0  0  0  0  0  0  0  0  0  0
   13.0537    9.9821   20.5781 C   0  0  0  0  0  0  0  0  0  0  0  0
   10.3850    4.6575   23.2386 O   0  0  0  0  0  0  0  0  0  0  0  0
    4.2069    6.8450   20.7994 C   0  0  0  0  0  0  0  0  0  0  0  0
    3.0726   10.1043   19.8522 O   0  0  0  0  0  0  0  0  0  0  0  0
    5.5057    7.1196   21.1155 C   0  0  0  0  0  0  0  0  0  0  0  0
    7.0367   11.0229   21.9948 O   0  0  0  0  0  0  0  0  0  0  0  0
  1  8  4  0
  1 12  4  0
  2  9  1  0
  2 11  4  0
  2 25  4  0
  3 12  4  0
  3 14  1  0
  3 23  4  0
  4 13  4  0
  4 21  4  0
  4 24  1  0
  5  8  4  0
  5 23  4  0
  6 18  2  0
  7 15  4  0
  7 16  1  0
  7 27  4  0
  8 18  1  0
 10 18  1  0
 10 20  1  0
 11 15  4  0
 11 26  1  0
 13 22  4  0
 16 19  1  0
 16 20  2  0
 17 19  4  0
 17 21  4  0
 19 22  4  0
 20 28  1  0
 25 27  4  0
M  END
$$$$

 Created by Python create_sdf_string function

 28 30  0  0  0  0  0  0  0  0999 V2000
   11.4592   11.2893   18.7941 C   0  0  0  0  0  0  0  0  0  0  0  0
    3.4202    7.9009   20.3866 C   0  0  0  0  0  0  0  0  0  0  0  0
   13.5280   10.3522   19.3586 C   0  0  0  0  0  0  0  0  0  0  0  0
    9.6923    5.6468   22.7891 C   0  0  0  0  0  0  0  0  0  0  0  0
   11.7756   10.2554   20.8841 N   0  0  0  0  0  0  0  0  0  0  0  0
    8.9876   11.9370   19.8757 O   0  0  0  0  0  0  0  0  0  0  0  0
    6.0167    8.4478   21.1089 C   0  0  0  0  0  0  0  0  0  0  0  0
   11.0002   10.8890   20.0262 C   0  0  0  0  0  0  0  0  0  0  0  0
    2.1721    7.7393   20.0315 O   0  0  0  0  0  0  0  0  0  0  0  0
    9.1107   10.3880   21.3769 N   0  0  0  0  0  0  0  0  0  0  0  0
    3.9102    9.2008   20.3124 C   0  0  0  0  0  0  0  0  0  0  0  0
   12.7292   10.9960   18.4597 C   0  0  0  0  0  0  0  0  0  0  0  0
    9.3798    6.6793   23.6625 C   0  0  0  0  0  0  0  0  0  0  0  0
   14.7425   10.0739   19.0802 O   0  0  0  0  0  0  0  0  0  0  0  0
    5.1894    9.4673   20.7118 C   0  0  0  0  0  0  0  0  0  0  0  0
    7.3773    8.8224   21.4870 C   0  0  0  0  0  0  0  0  0  0  0  0
    8.4391    6.6439   21.0235 C   0  0  0  0  0  0  0  0  0  0  0  0
    9.6494   11.1353   20.4167 C   0  0  0  0  0  0  0  0  0  0  0  0
    8.1431    7.6829   21.9046 C   0  0  0  0  0  0  0  0  0  0  0  0
    7.7796   10.1314   21.5115 N   0  0  0  0  0  0  0  0  0  0  0  0
    9.2768    5.6183   21.4437 C   0  0  0  0  0  0  0  0  0  0  0  0
    8.6315    7.7322   23.1768 C   0  0  0  0  0  0  0  0  0  0  0  0
   13.0537    9.9821   20.5781 C   0  0  0  0  0  0  0  0  0  0  0  0
   10.3850    4.6575   23.2386 O   0  0  0  0  0  0  0  0  0  0  0  0
    4.2069    6.8450   20.7994 C   0  0  0  0  0  0  0  0  0  0  0  0
    3.0726   10.1043   19.8522 O   0  0  0  0  0  0  0  0  0  0  0  0
    5.5057    7.1196   21.1155 C   0  0  0  0  0  0  0  0  0  0  0  0
    7.0367   11.0229   21.9948 O   0  0  0  0  0  0  0  0  0  0  0  0
  1  8  4  0
  1 12  4  0
  2  9  1  0
  2 11  4  0
  2 25  4  0
  3 12  4  0
  3 14  1  0
  3 23  4  0
  4 13  4  0
  4 21  4  0
  4 24  1  0
  5  8  4  0
  5 23  4  0
  6 18  2  0
  7 15  4  0
  7 16  1  0
  7 27  4  0
  8 18  1  0
 10 18  1  0
 10 20  1  0
 11 15  4  0
 11 26  1  0
 13 22  4  0
 16 19  1  0
 16 20  2  0
 17 19  4  0
 17 21  4  0
 19 22  4  0
 20 28  1  0
 25 27  4  0
M  END
$$$$

 Created by Python create_sdf_string function

 28 30  0  0  0  0  0  0  0  0999 V2000
   11.4592   11.2893   18.7941 C   0  0  0  0  0  0  0  0  0  0  0  0
    3.4202    7.9009   20.3866 C   0  0  0  0  0  0  0  0  0  0  0  0
   13.5280   10.3522   19.3586 C   0  0  0  0  0  0  0  0  0  0  0  0
    9.6923    5.6468   22.7891 C   0  0  0  0  0  0  0  0  0  0  0  0
   11.7756   10.2554   20.8841 N   0  0  0  0  0  0  0  0  0  0  0  0
    8.9876   11.9370   19.8757 O   0  0  0  0  0  0  0  0  0  0  0  0
    6.0167    8.4478   21.1089 C   0  0  0  0  0  0  0  0  0  0  0  0
   11.0002   10.8890   20.0262 C   0  0  0  0  0  0  0  0  0  0  0  0
    2.1721    7.7393   20.0315 O   0  0  0  0  0  0  0  0  0  0  0  0
    9.1107   10.3880   21.3769 N   0  0  0  0  0  0  0  0  0  0  0  0
    3.9102    9.2008   20.3124 C   0  0  0  0  0  0  0  0  0  0  0  0
   12.7292   10.9960   18.4597 C   0  0  0  0  0  0  0  0  0  0  0  0
    9.3798    6.6793   23.6625 C   0  0  0  0  0  0  0  0  0  0  0  0
   14.7425   10.0739   19.0802 O   0  0  0  0  0  0  0  0  0  0  0  0
    5.1894    9.4673   20.7118 C   0  0  0  0  0  0  0  0  0  0  0  0
    7.3773    8.8224   21.4870 C   0  0  0  0  0  0  0  0  0  0  0  0
    8.4391    6.6439   21.0235 C   0  0  0  0  0  0  0  0  0  0  0  0
    9.6494   11.1353   20.4167 C   0  0  0  0  0  0  0  0  0  0  0  0
    8.1431    7.6829   21.9046 C   0  0  0  0  0  0  0  0  0  0  0  0
    7.7796   10.1314   21.5115 N   0  0  0  0  0  0  0  0  0  0  0  0
    9.2768    5.6183   21.4437 C   0  0  0  0  0  0  0  0  0  0  0  0
    8.6315    7.7322   23.1768 C   0  0  0  0  0  0  0  0  0  0  0  0
   13.0537    9.9821   20.5781 C   0  0  0  0  0  0  0  0  0  0  0  0
   10.3850    4.6575   23.2386 O   0  0  0  0  0  0  0  0  0  0  0  0
    4.2069    6.8450   20.7994 C   0  0  0  0  0  0  0  0  0  0  0  0
    3.0726   10.1043   19.8522 O   0  0  0  0  0  0  0  0  0  0  0  0
    5.5057    7.1196   21.1155 C   0  0  0  0  0  0  0  0  0  0  0  0
    7.0367   11.0229   21.9948 O   0  0  0  0  0  0  0  0  0  0  0  0
  1  8  4  0
  1 12  4  0
  2  9  1  0
  2 11  4  0
  2 25  4  0
  3 12  4  0
  3 14  1  0
  3 23  4  0
  4 13  4  0
  4 21  4  0
  4 24  1  0
  5  8  4  0
  5 23  4  0
  6 18  2  0
  7 15  4  0
  7 16  1  0
  7 27  4  0
  8 18  1  0
 10 18  1  0
 10 20  1  0
 11 15  4  0
 11 26  1  0
 13 22  4  0
 16 19  1  0
 16 20  2  0
 17 19  4  0
 17 21  4  0
 19 22  4  0
 20 28  1  0
 25 27  4  0
M  END
$$$$

 Created by Python create_sdf_string function

 28 30  0  0  0  0  0  0  0  0999 V2000
   11.4592   11.2893   18.7941 C   0  0  0  0  0  0  0  0  0  0  0  0
    3.4202    7.9009   20.3866 C   0  0  0  0  0  0  0  0  0  0  0  0
   13.5280   10.3522   19.3586 C   0  0  0  0  0  0  0  0  0  0  0  0
    9.6923    5.6468   22.7891 C   0  0  0  0  0  0  0  0  0  0  0  0
   11.7756   10.2554   20.8841 N   0  0  0  0  0  0  0  0  0  0  0  0
    8.9876   11.9370   19.8757 O   0  0  0  0  0  0  0  0  0  0  0  0
    6.0167    8.4478   21.1089 C   0  0  0  0  0  0  0  0  0  0  0  0
   11.0002   10.8890   20.0262 C   0  0  0  0  0  0  0  0  0  0  0  0
    2.1721    7.7393   20.0315 O   0  0  0  0  0  0  0  0  0  0  0  0
    9.1107   10.3880   21.3769 N   0  0  0  0  0  0  0  0  0  0  0  0
    3.9102    9.2008   20.3124 C   0  0  0  0  0  0  0  0  0  0  0  0
   12.7292   10.9960   18.4597 C   0  0  0  0  0  0  0  0  0  0  0  0
    9.3798    6.6793   23.6625 C   0  0  0  0  0  0  0  0  0  0  0  0
   14.7425   10.0739   19.0802 O   0  0  0  0  0  0  0  0  0  0  0  0
    5.1894    9.4673   20.7118 C   0  0  0  0  0  0  0  0  0  0  0  0
    7.3773    8.8224   21.4870 C   0  0  0  0  0  0  0  0  0  0  0  0
    8.4391    6.6439   21.0235 C   0  0  0  0  0  0  0  0  0  0  0  0
    9.6494   11.1353   20.4167 C   0  0  0  0  0  0  0  0  0  0  0  0
    8.1431    7.6829   21.9046 C   0  0  0  0  0  0  0  0  0  0  0  0
    7.7796   10.1314   21.5115 N   0  0  0  0  0  0  0  0  0  0  0  0
    9.2768    5.6183   21.4437 C   0  0  0  0  0  0  0  0  0  0  0  0
    8.6315    7.7322   23.1768 C   0  0  0  0  0  0  0  0  0  0  0  0
   13.0537    9.9821   20.5781 C   0  0  0  0  0  0  0  0  0  0  0  0
   10.3850    4.6575   23.2386 O   0  0  0  0  0  0  0  0  0  0  0  0
    4.2069    6.8450   20.7994 C   0  0  0  0  0  0  0  0  0  0  0  0
    3.0726   10.1043   19.8522 O   0  0  0  0  0  0  0  0  0  0  0  0
    5.5057    7.1196   21.1155 C   0  0  0  0  0  0  0  0  0  0  0  0
    7.0367   11.0229   21.9948 O   0  0  0  0  0  0  0  0  0  0  0  0
  1  8  4  0
  1 12  4  0
  2  9  1  0
  2 11  4  0
  2 25  4  0
  3 12  4  0
  3 14  1  0
  3 23  4  0
  4 13  4  0
  4 21  4  0
  4 24  1  0
  5  8  4  0
  5 23  4  0
  6 18  2  0
  7 15  4  0
  7 16  1  0
  7 27  4  0
  8 18  1  0
 10 18  1  0
 10 20  1  0
 11 15  4  0
 11 26  1  0
 13 22  4  0
 16 19  1  0
 16 20  2  0
 17 19  4  0
 17 21  4  0
 19 22  4  0
 20 28  1  0
 25 27  4  0
M  END
$$$$

 Created by Python create_sdf_string function

 28 30  0  0  0  0  0  0  0  0999 V2000
   11.4592   11.2893   18.7941 C   0  0  0  0  0  0  0  0  0  0  0  0
    3.4202    7.9009   20.3866 C   0  0  0  0  0  0  0  0  0  0  0  0
   13.5280   10.3522   19.3586 C   0  0  0  0  0  0  0  0  0  0  0  0
    9.6923    5.6468   22.7891 C   0  0  0  0  0  0  0  0  0  0  0  0
   11.7756   10.2554   20.8841 N   0  0  0  0  0  0  0  0  0  0  0  0
    8.9876   11.9370   19.8757 O   0  0  0  0  0  0  0  0  0  0  0  0
    6.0167    8.4478   21.1089 C   0  0  0  0  0  0  0  0  0  0  0  0
   11.0002   10.8890   20.0262 C   0  0  0  0  0  0  0  0  0  0  0  0
    2.1721    7.7393   20.0315 O   0  0  0  0  0  0  0  0  0  0  0  0
    9.1107   10.3880   21.3769 N   0  0  0  0  0  0  0  0  0  0  0  0
    3.9102    9.2008   20.3124 C   0  0  0  0  0  0  0  0  0  0  0  0
   12.7292   10.9960   18.4597 C   0  0  0  0  0  0  0  0  0  0  0  0
    9.3798    6.6793   23.6625 C   0  0  0  0  0  0  0  0  0  0  0  0
   14.7425   10.0739   19.0802 O   0  0  0  0  0  0  0  0  0  0  0  0
    5.1894    9.4673   20.7118 C   0  0  0  0  0  0  0  0  0  0  0  0
    7.3773    8.8224   21.4870 C   0  0  0  0  0  0  0  0  0  0  0  0
    8.4391    6.6439   21.0235 C   0  0  0  0  0  0  0  0  0  0  0  0
    9.6494   11.1353   20.4167 C   0  0  0  0  0  0  0  0  0  0  0  0
    8.1431    7.6829   21.9046 C   0  0  0  0  0  0  0  0  0  0  0  0
    7.7796   10.1314   21.5115 N   0  0  0  0  0  0  0  0  0  0  0  0
    9.2768    5.6183   21.4437 C   0  0  0  0  0  0  0  0  0  0  0  0
    8.6315    7.7322   23.1768 C   0  0  0  0  0  0  0  0  0  0  0  0
   13.0537    9.9821   20.5781 C   0  0  0  0  0  0  0  0  0  0  0  0
   10.3850    4.6575   23.2386 O   0  0  0  0  0  0  0  0  0  0  0  0
    4.2069    6.8450   20.7994 C   0  0  0  0  0  0  0  0  0  0  0  0
    3.0726   10.1043   19.8522 O   0  0  0  0  0  0  0  0  0  0  0  0
    5.5057    7.1196   21.1155 C   0  0  0  0  0  0  0  0  0  0  0  0
    7.0367   11.0229   21.9948 O   0  0  0  0  0  0  0  0  0  0  0  0
  1  8  4  0
  1 12  4  0
  2  9  1  0
  2 11  4  0
  2 25  4  0
  3 12  4  0
  3 14  1  0
  3 23  4  0
  4 13  4  0
  4 21  4  0
  4 24  1  0
  5  8  4  0
  5 23  4  0
  6 18  2  0
  7 15  4  0
  7 16  1  0
  7 27  4  0
  8 18  1  0
 10 18  1  0
 10 20  1  0
 11 15  4  0
 11 26  1  0
 13 22  4  0
 16 19  1  0
 16 20  2  0
 17 19  4  0
 17 21  4  0
 19 22  4  0
 20 28  1  0
 25 27  4  0
M  END
$$$$

 Created by Python create_sdf_string function

 28 30  0  0  0  0  0  0  0  0999 V2000
   11.4592   11.2893   18.7941 C   0  0  0  0  0  0  0  0  0  0  0  0
    3.4202    7.9009   20.3866 C   0  0  0  0  0  0  0  0  0  0  0  0
   13.5280   10.3522   19.3586 C   0  0  0  0  0  0  0  0  0  0  0  0
    9.6923    5.6468   22.7891 C   0  0  0  0  0  0  0  0  0  0  0  0
   11.7756   10.2554   20.8841 N   0  0  0  0  0  0  0  0  0  0  0  0
    8.9876   11.9370   19.8757 O   0  0  0  0  0  0  0  0  0  0  0  0
    6.0167    8.4478   21.1089 C   0  0  0  0  0  0  0  0  0  0  0  0
   11.0002   10.8890   20.0262 C   0  0  0  0  0  0  0  0  0  0  0  0
    2.1721    7.7393   20.0315 O   0  0  0  0  0  0  0  0  0  0  0  0
    9.1107   10.3880   21.3769 N   0  0  0  0  0  0  0  0  0  0  0  0
    3.9102    9.2008   20.3124 C   0  0  0  0  0  0  0  0  0  0  0  0
   12.7292   10.9960   18.4597 C   0  0  0  0  0  0  0  0  0  0  0  0
    9.3798    6.6793   23.6625 C   0  0  0  0  0  0  0  0  0  0  0  0
   14.7425   10.0739   19.0802 O   0  0  0  0  0  0  0  0  0  0  0  0
    5.1894    9.4673   20.7118 C   0  0  0  0  0  0  0  0  0  0  0  0
    7.3773    8.8224   21.4870 C   0  0  0  0  0  0  0  0  0  0  0  0
    8.4391    6.6439   21.0235 C   0  0  0  0  0  0  0  0  0  0  0  0
    9.6494   11.1353   20.4167 C   0  0  0  0  0  0  0  0  0  0  0  0
    8.1431    7.6829   21.9046 C   0  0  0  0  0  0  0  0  0  0  0  0
    7.7796   10.1314   21.5115 N   0  0  0  0  0  0  0  0  0  0  0  0
    9.2768    5.6183   21.4437 C   0  0  0  0  0  0  0  0  0  0  0  0
    8.6315    7.7322   23.1768 C   0  0  0  0  0  0  0  0  0  0  0  0
   13.0537    9.9821   20.5781 C   0  0  0  0  0  0  0  0  0  0  0  0
   10.3850    4.6575   23.2386 O   0  0  0  0  0  0  0  0  0  0  0  0
    4.2069    6.8450   20.7994 C   0  0  0  0  0  0  0  0  0  0  0  0
    3.0726   10.1043   19.8522 O   0  0  0  0  0  0  0  0  0  0  0  0
    5.5057    7.1196   21.1155 C   0  0  0  0  0  0  0  0  0  0  0  0
    7.0367   11.0229   21.9948 O   0  0  0  0  0  0  0  0  0  0  0  0
  1  8  4  0
  1 12  4  0
  2  9  1  0
  2 11  4  0
  2 25  4  0
  3 12  4  0
  3 14  1  0
  3 23  4  0
  4 13  4  0
  4 21  4  0
  4 24  1  0
  5  8  4  0
  5 23  4  0
  6 18  2  0
  7 15  4  0
  7 16  1  0
  7 27  4  0
  8 18  1  0
 10 18  1  0
 10 20  1  0
 11 15  4  0
 11 26  1  0
 13 22  4  0
 16 19  1  0
 16 20  2  0
 17 19  4  0
 17 21  4  0
 19 22  4  0
 20 28  1  0
 25 27  4  0
M  END
$$$$

 Created by Python create_sdf_string function

 28 30  0  0  0  0  0  0  0  0999 V2000
   11.4592   11.2893   18.7941 C   0  0  0  0  0  0  0  0  0  0  0  0
    3.4202    7.9009   20.3866 C   0  0  0  0  0  0  0  0  0  0  0  0
   13.5280   10.3522   19.3586 C   0  0  0  0  0  0  0  0  0  0  0  0
    9.6923    5.6468   22.7891 C   0  0  0  0  0  0  0  0  0  0  0  0
   11.7756   10.2554   20.8841 N   0  0  0  0  0  0  0  0  0  0  0  0
    8.9876   11.9370   19.8757 O   0  0  0  0  0  0  0  0  0  0  0  0
    6.0167    8.4478   21.1089 C   0  0  0  0  0  0  0  0  0  0  0  0
   11.0002   10.8890   20.0262 C   0  0  0  0  0  0  0  0  0  0  0  0
    2.1721    7.7393   20.0315 O   0  0  0  0  0  0  0  0  0  0  0  0
    9.1107   10.3880   21.3769 N   0  0  0  0  0  0  0  0  0  0  0  0
    3.9102    9.2008   20.3124 C   0  0  0  0  0  0  0  0  0  0  0  0
   12.7292   10.9960   18.4597 C   0  0  0  0  0  0  0  0  0  0  0  0
    9.3798    6.6793   23.6625 C   0  0  0  0  0  0  0  0  0  0  0  0
   14.7425   10.0739   19.0802 O   0  0  0  0  0  0  0  0  0  0  0  0
    5.1894    9.4673   20.7118 C   0  0  0  0  0  0  0  0  0  0  0  0
    7.3773    8.8224   21.4870 C   0  0  0  0  0  0  0  0  0  0  0  0
    8.4391    6.6439   21.0235 C   0  0  0  0  0  0  0  0  0  0  0  0
    9.6494   11.1353   20.4167 C   0  0  0  0  0  0  0  0  0  0  0  0
    8.1431    7.6829   21.9046 C   0  0  0  0  0  0  0  0  0  0  0  0
    7.7796   10.1314   21.5115 N   0  0  0  0  0  0  0  0  0  0  0  0
    9.2768    5.6183   21.4437 C   0  0  0  0  0  0  0  0  0  0  0  0
    8.6315    7.7322   23.1768 C   0  0  0  0  0  0  0  0  0  0  0  0
   13.0537    9.9821   20.5781 C   0  0  0  0  0  0  0  0  0  0  0  0
   10.3850    4.6575   23.2386 O   0  0  0  0  0  0  0  0  0  0  0  0
    4.2069    6.8450   20.7994 C   0  0  0  0  0  0  0  0  0  0  0  0
    3.0726   10.1043   19.8522 O   0  0  0  0  0  0  0  0  0  0  0  0
    5.5057    7.1196   21.1155 C   0  0  0  0  0  0  0  0  0  0  0  0
    7.0367   11.0229   21.9948 O   0  0  0  0  0  0  0  0  0  0  0  0
  1  8  4  0
  1 12  4  0
  2  9  1  0
  2 11  4  0
  2 25  4  0
  3 12  4  0
  3 14  1  0
  3 23  4  0
  4 13  4  0
  4 21  4  0
  4 24  1  0
  5  8  4  0
  5 23  4  0
  6 18  2  0
  7 15  4  0
  7 16  1  0
  7 27  4  0
  8 18  1  0
 10 18  1  0
 10 20  1  0
 11 15  4  0
 11 26  1  0
 13 22  4  0
 16 19  1  0
 16 20  2  0
 17 19  4  0
 17 21  4  0
 19 22  4  0
 20 28  1  0
 25 27  4  0
M  END
$$$$

 Created by Python create_sdf_string function

 28 30  0  0  0  0  0  0  0  0999 V2000
   11.4592   11.2893   18.7941 C   0  0  0  0  0  0  0  0  0  0  0  0
    3.4202    7.9009   20.3866 C   0  0  0  0  0  0  0  0  0  0  0  0
   13.5280   10.3522   19.3586 C   0  0  0  0  0  0  0  0  0  0  0  0
    9.6923    5.6468   22.7891 C   0  0  0  0  0  0  0  0  0  0  0  0
   11.7756   10.2554   20.8841 N   0  0  0  0  0  0  0  0  0  0  0  0
    8.9876   11.9370   19.8757 O   0  0  0  0  0  0  0  0  0  0  0  0
    6.0167    8.4478   21.1089 C   0  0  0  0  0  0  0  0  0  0  0  0
   11.0002   10.8890   20.0262 C   0  0  0  0  0  0  0  0  0  0  0  0
    2.1721    7.7393   20.0315 O   0  0  0  0  0  0  0  0  0  0  0  0
    9.1107   10.3880   21.3769 N   0  0  0  0  0  0  0  0  0  0  0  0
    3.9102    9.2008   20.3124 C   0  0  0  0  0  0  0  0  0  0  0  0
   12.7292   10.9960   18.4597 C   0  0  0  0  0  0  0  0  0  0  0  0
    9.3798    6.6793   23.6625 C   0  0  0  0  0  0  0  0  0  0  0  0
   14.7425   10.0739   19.0802 O   0  0  0  0  0  0  0  0  0  0  0  0
    5.1894    9.4673   20.7118 C   0  0  0  0  0  0  0  0  0  0  0  0
    7.3773    8.8224   21.4870 C   0  0  0  0  0  0  0  0  0  0  0  0
    8.4391    6.6439   21.0235 C   0  0  0  0  0  0  0  0  0  0  0  0
    9.6494   11.1353   20.4167 C   0  0  0  0  0  0  0  0  0  0  0  0
    8.1431    7.6829   21.9046 C   0  0  0  0  0  0  0  0  0  0  0  0
    7.7796   10.1314   21.5115 N   0  0  0  0  0  0  0  0  0  0  0  0
    9.2768    5.6183   21.4437 C   0  0  0  0  0  0  0  0  0  0  0  0
    8.6315    7.7322   23.1768 C   0  0  0  0  0  0  0  0  0  0  0  0
   13.0537    9.9821   20.5781 C   0  0  0  0  0  0  0  0  0  0  0  0
   10.3850    4.6575   23.2386 O   0  0  0  0  0  0  0  0  0  0  0  0
    4.2069    6.8450   20.7994 C   0  0  0  0  0  0  0  0  0  0  0  0
    3.0726   10.1043   19.8522 O   0  0  0  0  0  0  0  0  0  0  0  0
    5.5057    7.1196   21.1155 C   0  0  0  0  0  0  0  0  0  0  0  0
    7.0367   11.0229   21.9948 O   0  0  0  0  0  0  0  0  0  0  0  0
  1  8  4  0
  1 12  4  0
  2  9  1  0
  2 11  4  0
  2 25  4  0
  3 12  4  0
  3 14  1  0
  3 23  4  0
  4 13  4  0
  4 21  4  0
  4 24  1  0
  5  8  4  0
  5 23  4  0
  6 18  2  0
  7 15  4  0
  7 16  1  0
  7 27  4  0
  8 18  1  0
 10 18  1  0
 10 20  1  0
 11 15  4  0
 11 26  1  0
 13 22  4  0
 16 19  1  0
 16 20  2  0
 17 19  4  0
 17 21  4  0
 19 22  4  0
 20 28  1  0
 25 27  4  0
M  END
$$$$

 Created by Python create_sdf_string function

 28 30  0  0  0  0  0  0  0  0999 V2000
   11.4592   11.2893   18.7941 C   0  0  0  0  0  0  0  0  0  0  0  0
    3.4202    7.9009   20.3866 C   0  0  0  0  0  0  0  0  0  0  0  0
   13.5280   10.3522   19.3586 C   0  0  0  0  0  0  0  0  0  0  0  0
    9.6923    5.6468   22.7891 C   0  0  0  0  0  0  0  0  0  0  0  0
   11.7756   10.2554   20.8841 N   0  0  0  0  0  0  0  0  0  0  0  0
    8.9876   11.9370   19.8757 O   0  0  0  0  0  0  0  0  0  0  0  0
    6.0167    8.4478   21.1089 C   0  0  0  0  0  0  0  0  0  0  0  0
   11.0002   10.8890   20.0262 C   0  0  0  0  0  0  0  0  0  0  0  0
    2.1721    7.7393   20.0315 O   0  0  0  0  0  0  0  0  0  0  0  0
    9.1107   10.3880   21.3769 N   0  0  0  0  0  0  0  0  0  0  0  0
    3.9102    9.2008   20.3124 C   0  0  0  0  0  0  0  0  0  0  0  0
   12.7292   10.9960   18.4597 C   0  0  0  0  0  0  0  0  0  0  0  0
    9.3798    6.6793   23.6625 C   0  0  0  0  0  0  0  0  0  0  0  0
   14.7425   10.0739   19.0802 O   0  0  0  0  0  0  0  0  0  0  0  0
    5.1894    9.4673   20.7118 C   0  0  0  0  0  0  0  0  0  0  0  0
    7.3773    8.8224   21.4870 C   0  0  0  0  0  0  0  0  0  0  0  0
    8.4391    6.6439   21.0235 C   0  0  0  0  0  0  0  0  0  0  0  0
    9.6494   11.1353   20.4167 C   0  0  0  0  0  0  0  0  0  0  0  0
    8.1431    7.6829   21.9046 C   0  0  0  0  0  0  0  0  0  0  0  0
    7.7796   10.1314   21.5115 N   0  0  0  0  0  0  0  0  0  0  0  0
    9.2768    5.6183   21.4437 C   0  0  0  0  0  0  0  0  0  0  0  0
    8.6315    7.7322   23.1768 C   0  0  0  0  0  0  0  0  0  0  0  0
   13.0537    9.9821   20.5781 C   0  0  0  0  0  0  0  0  0  0  0  0
   10.3850    4.6575   23.2386 O   0  0  0  0  0  0  0  0  0  0  0  0
    4.2069    6.8450   20.7994 C   0  0  0  0  0  0  0  0  0  0  0  0
    3.0726   10.1043   19.8522 O   0  0  0  0  0  0  0  0  0  0  0  0
    5.5057    7.1196   21.1155 C   0  0  0  0  0  0  0  0  0  0  0  0
    7.0367   11.0229   21.9948 O   0  0  0  0  0  0  0  0  0  0  0  0
  1  8  4  0
  1 12  4  0
  2  9  1  0
  2 11  4  0
  2 25  4  0
  3 12  4  0
  3 14  1  0
  3 23  4  0
  4 13  4  0
  4 21  4  0
  4 24  1  0
  5  8  4  0
  5 23  4  0
  6 18  2  0
  7 15  4  0
  7 16  1  0
  7 27  4  0
  8 18  1  0
 10 18  1  0
 10 20  1  0
 11 15  4  0
 11 26  1  0
 13 22  4  0
 16 19  1  0
 16 20  2  0
 17 19  4  0
 17 21  4  0
 19 22  4  0
 20 28  1  0
 25 27  4  0
M  END
$$$$

 Created by Python create_sdf_string function

 28 30  0  0  0  0  0  0  0  0999 V2000
   11.4592   11.2893   18.7941 C   0  0  0  0  0  0  0  0  0  0  0  0
    3.4202    7.9009   20.3866 C   0  0  0  0  0  0  0  0  0  0  0  0
   13.5280   10.3522   19.3586 C   0  0  0  0  0  0  0  0  0  0  0  0
    9.6923    5.6468   22.7891 C   0  0  0  0  0  0  0  0  0  0  0  0
   11.7756   10.2554   20.8841 N   0  0  0  0  0  0  0  0  0  0  0  0
    8.9876   11.9370   19.8757 O   0  0  0  0  0  0  0  0  0  0  0  0
    6.0167    8.4478   21.1089 C   0  0  0  0  0  0  0  0  0  0  0  0
   11.0002   10.8890   20.0262 C   0  0  0  0  0  0  0  0  0  0  0  0
    2.1721    7.7393   20.0315 O   0  0  0  0  0  0  0  0  0  0  0  0
    9.1107   10.3880   21.3769 N   0  0  0  0  0  0  0  0  0  0  0  0
    3.9102    9.2008   20.3124 C   0  0  0  0  0  0  0  0  0  0  0  0
   12.7292   10.9960   18.4597 C   0  0  0  0  0  0  0  0  0  0  0  0
    9.3798    6.6793   23.6625 C   0  0  0  0  0  0  0  0  0  0  0  0
   14.7425   10.0739   19.0802 O   0  0  0  0  0  0  0  0  0  0  0  0
    5.1894    9.4673   20.7118 C   0  0  0  0  0  0  0  0  0  0  0  0
    7.3773    8.8224   21.4870 C   0  0  0  0  0  0  0  0  0  0  0  0
    8.4391    6.6439   21.0235 C   0  0  0  0  0  0  0  0  0  0  0  0
    9.6494   11.1353   20.4167 C   0  0  0  0  0  0  0  0  0  0  0  0
    8.1431    7.6829   21.9046 C   0  0  0  0  0  0  0  0  0  0  0  0
    7.7796   10.1314   21.5115 N   0  0  0  0  0  0  0  0  0  0  0  0
    9.2768    5.6183   21.4437 C   0  0  0  0  0  0  0  0  0  0  0  0
    8.6315    7.7322   23.1768 C   0  0  0  0  0  0  0  0  0  0  0  0
   13.0537    9.9821   20.5781 C   0  0  0  0  0  0  0  0  0  0  0  0
   10.3850    4.6575   23.2386 O   0  0  0  0  0  0  0  0  0  0  0  0
    4.2069    6.8450   20.7994 C   0  0  0  0  0  0  0  0  0  0  0  0
    3.0726   10.1043   19.8522 O   0  0  0  0  0  0  0  0  0  0  0  0
    5.5057    7.1196   21.1155 C   0  0  0  0  0  0  0  0  0  0  0  0
    7.0367   11.0229   21.9948 O   0  0  0  0  0  0  0  0  0  0  0  0
  1  8  4  0
  1 12  4  0
  2  9  1  0
  2 11  4  0
  2 25  4  0
  3 12  4  0
  3 14  1  0
  3 23  4  0
  4 13  4  0
  4 21  4  0
  4 24  1  0
  5  8  4  0
  5 23  4  0
  6 18  2  0
  7 15  4  0
  7 16  1  0
  7 27  4  0
  8 18  1  0
 10 18  1  0
 10 20  1  0
 11 15  4  0
 11 26  1  0
 13 22  4  0
 16 19  1  0
 16 20  2  0
 17 19  4  0
 17 21  4  0
 19 22  4  0
 20 28  1  0
 25 27  4  0
M  END
$$$$

 Created by Python create_sdf_string function

 28 30  0  0  0  0  0  0  0  0999 V2000
   11.4592   11.2893   18.7941 C   0  0  0  0  0  0  0  0  0  0  0  0
    3.4202    7.9009   20.3866 C   0  0  0  0  0  0  0  0  0  0  0  0
   13.5280   10.3522   19.3586 C   0  0  0  0  0  0  0  0  0  0  0  0
    9.6923    5.6468   22.7891 C   0  0  0  0  0  0  0  0  0  0  0  0
   11.7756   10.2554   20.8841 N   0  0  0  0  0  0  0  0  0  0  0  0
    8.9876   11.9370   19.8757 O   0  0  0  0  0  0  0  0  0  0  0  0
    6.0167    8.4478   21.1089 C   0  0  0  0  0  0  0  0  0  0  0  0
   11.0002   10.8890   20.0262 C   0  0  0  0  0  0  0  0  0  0  0  0
    2.1721    7.7393   20.0315 O   0  0  0  0  0  0  0  0  0  0  0  0
    9.1107   10.3880   21.3769 N   0  0  0  0  0  0  0  0  0  0  0  0
    3.9102    9.2008   20.3124 C   0  0  0  0  0  0  0  0  0  0  0  0
   12.7292   10.9960   18.4597 C   0  0  0  0  0  0  0  0  0  0  0  0
    9.3798    6.6793   23.6625 C   0  0  0  0  0  0  0  0  0  0  0  0
   14.7425   10.0739   19.0802 O   0  0  0  0  0  0  0  0  0  0  0  0
    5.1894    9.4673   20.7118 C   0  0  0  0  0  0  0  0  0  0  0  0
    7.3773    8.8224   21.4870 C   0  0  0  0  0  0  0  0  0  0  0  0
    8.4391    6.6439   21.0235 C   0  0  0  0  0  0  0  0  0  0  0  0
    9.6494   11.1353   20.4167 C   0  0  0  0  0  0  0  0  0  0  0  0
    8.1431    7.6829   21.9046 C   0  0  0  0  0  0  0  0  0  0  0  0
    7.7796   10.1314   21.5115 N   0  0  0  0  0  0  0  0  0  0  0  0
    9.2768    5.6183   21.4437 C   0  0  0  0  0  0  0  0  0  0  0  0
    8.6315    7.7322   23.1768 C   0  0  0  0  0  0  0  0  0  0  0  0
   13.0537    9.9821   20.5781 C   0  0  0  0  0  0  0  0  0  0  0  0
   10.3850    4.6575   23.2386 O   0  0  0  0  0  0  0  0  0  0  0  0
    4.2069    6.8450   20.7994 C   0  0  0  0  0  0  0  0  0  0  0  0
    3.0726   10.1043   19.8522 O   0  0  0  0  0  0  0  0  0  0  0  0
    5.5057    7.1196   21.1155 C   0  0  0  0  0  0  0  0  0  0  0  0
    7.0367   11.0229   21.9948 O   0  0  0  0  0  0  0  0  0  0  0  0
  1  8  4  0
  1 12  4  0
  2  9  1  0
  2 11  4  0
  2 25  4  0
  3 12  4  0
  3 14  1  0
  3 23  4  0
  4 13  4  0
  4 21  4  0
  4 24  1  0
  5  8  4  0
  5 23  4  0
  6 18  2  0
  7 15  4  0
  7 16  1  0
  7 27  4  0
  8 18  1  0
 10 18  1  0
 10 20  1  0
 11 15  4  0
 11 26  1  0
 13 22  4  0
 16 19  1  0
 16 20  2  0
 17 19  4  0
 17 21  4  0
 19 22  4  0
 20 28  1  0
 25 27  4  0
M  END
$$$$

 Created by Python create_sdf_string function

 28 30  0  0  0  0  0  0  0  0999 V2000
   11.4592   11.2893   18.7941 C   0  0  0  0  0  0  0  0  0  0  0  0
    3.4202    7.9009   20.3866 C   0  0  0  0  0  0  0  0  0  0  0  0
   13.5280   10.3522   19.3586 C   0  0  0  0  0  0  0  0  0  0  0  0
    9.6923    5.6468   22.7891 C   0  0  0  0  0  0  0  0  0  0  0  0
   11.7756   10.2554   20.8841 N   0  0  0  0  0  0  0  0  0  0  0  0
    8.9876   11.9370   19.8757 O   0  0  0  0  0  0  0  0  0  0  0  0
    6.0167    8.4478   21.1089 C   0  0  0  0  0  0  0  0  0  0  0  0
   11.0002   10.8890   20.0262 C   0  0  0  0  0  0  0  0  0  0  0  0
    2.1721    7.7393   20.0315 O   0  0  0  0  0  0  0  0  0  0  0  0
    9.1107   10.3880   21.3769 N   0  0  0  0  0  0  0  0  0  0  0  0
    3.9102    9.2008   20.3124 C   0  0  0  0  0  0  0  0  0  0  0  0
   12.7292   10.9960   18.4597 C   0  0  0  0  0  0  0  0  0  0  0  0
    9.3798    6.6793   23.6625 C   0  0  0  0  0  0  0  0  0  0  0  0
   14.7425   10.0739   19.0802 O   0  0  0  0  0  0  0  0  0  0  0  0
    5.1894    9.4673   20.7118 C   0  0  0  0  0  0  0  0  0  0  0  0
    7.3773    8.8224   21.4870 C   0  0  0  0  0  0  0  0  0  0  0  0
    8.4391    6.6439   21.0235 C   0  0  0  0  0  0  0  0  0  0  0  0
    9.6494   11.1353   20.4167 C   0  0  0  0  0  0  0  0  0  0  0  0
    8.1431    7.6829   21.9046 C   0  0  0  0  0  0  0  0  0  0  0  0
    7.7796   10.1314   21.5115 N   0  0  0  0  0  0  0  0  0  0  0  0
    9.2768    5.6183   21.4437 C   0  0  0  0  0  0  0  0  0  0  0  0
    8.6315    7.7322   23.1768 C   0  0  0  0  0  0  0  0  0  0  0  0
   13.0537    9.9821   20.5781 C   0  0  0  0  0  0  0  0  0  0  0  0
   10.3850    4.6575   23.2386 O   0  0  0  0  0  0  0  0  0  0  0  0
    4.2069    6.8450   20.7994 C   0  0  0  0  0  0  0  0  0  0  0  0
    3.0726   10.1043   19.8522 O   0  0  0  0  0  0  0  0  0  0  0  0
    5.5057    7.1196   21.1155 C   0  0  0  0  0  0  0  0  0  0  0  0
    7.0367   11.0229   21.9948 O   0  0  0  0  0  0  0  0  0  0  0  0
  1  8  4  0
  1 12  4  0
  2  9  1  0
  2 11  4  0
  2 25  4  0
  3 12  4  0
  3 14  1  0
  3 23  4  0
  4 13  4  0
  4 21  4  0
  4 24  1  0
  5  8  4  0
  5 23  4  0
  6 18  2  0
  7 15  4  0
  7 16  1  0
  7 27  4  0
  8 18  1  0
 10 18  1  0
 10 20  1  0
 11 15  4  0
 11 26  1  0
 13 22  4  0
 16 19  1  0
 16 20  2  0
 17 19  4  0
 17 21  4  0
 19 22  4  0
 20 28  1  0
 25 27  4  0
M  END
$$$$

 Created by Python create_sdf_string function

 28 30  0  0  0  0  0  0  0  0999 V2000
   11.4592   11.2893   18.7941 C   0  0  0  0  0  0  0  0  0  0  0  0
    3.4202    7.9009   20.3866 C   0  0  0  0  0  0  0  0  0  0  0  0
   13.5280   10.3522   19.3586 C   0  0  0  0  0  0  0  0  0  0  0  0
    9.6923    5.6468   22.7891 C   0  0  0  0  0  0  0  0  0  0  0  0
   11.7756   10.2554   20.8841 N   0  0  0  0  0  0  0  0  0  0  0  0
    8.9876   11.9370   19.8757 O   0  0  0  0  0  0  0  0  0  0  0  0
    6.0167    8.4478   21.1089 C   0  0  0  0  0  0  0  0  0  0  0  0
   11.0002   10.8890   20.0262 C   0  0  0  0  0  0  0  0  0  0  0  0
    2.1721    7.7393   20.0315 O   0  0  0  0  0  0  0  0  0  0  0  0
    9.1107   10.3880   21.3769 N   0  0  0  0  0  0  0  0  0  0  0  0
    3.9102    9.2008   20.3124 C   0  0  0  0  0  0  0  0  0  0  0  0
   12.7292   10.9960   18.4597 C   0  0  0  0  0  0  0  0  0  0  0  0
    9.3798    6.6793   23.6625 C   0  0  0  0  0  0  0  0  0  0  0  0
   14.7425   10.0739   19.0802 O   0  0  0  0  0  0  0  0  0  0  0  0
    5.1894    9.4673   20.7118 C   0  0  0  0  0  0  0  0  0  0  0  0
    7.3773    8.8224   21.4870 C   0  0  0  0  0  0  0  0  0  0  0  0
    8.4391    6.6439   21.0235 C   0  0  0  0  0  0  0  0  0  0  0  0
    9.6494   11.1353   20.4167 C   0  0  0  0  0  0  0  0  0  0  0  0
    8.1431    7.6829   21.9046 C   0  0  0  0  0  0  0  0  0  0  0  0
    7.7796   10.1314   21.5115 N   0  0  0  0  0  0  0  0  0  0  0  0
    9.2768    5.6183   21.4437 C   0  0  0  0  0  0  0  0  0  0  0  0
    8.6315    7.7322   23.1768 C   0  0  0  0  0  0  0  0  0  0  0  0
   13.0537    9.9821   20.5781 C   0  0  0  0  0  0  0  0  0  0  0  0
   10.3850    4.6575   23.2386 O   0  0  0  0  0  0  0  0  0  0  0  0
    4.2069    6.8450   20.7994 C   0  0  0  0  0  0  0  0  0  0  0  0
    3.0726   10.1043   19.8522 O   0  0  0  0  0  0  0  0  0  0  0  0
    5.5057    7.1196   21.1155 C   0  0  0  0  0  0  0  0  0  0  0  0
    7.0367   11.0229   21.9948 O   0  0  0  0  0  0  0  0  0  0  0  0
  1  8  4  0
  1 12  4  0
  2  9  1  0
  2 11  4  0
  2 25  4  0
  3 12  4  0
  3 14  1  0
  3 23  4  0
  4 13  4  0
  4 21  4  0
  4 24  1  0
  5  8  4  0
  5 23  4  0
  6 18  2  0
  7 15  4  0
  7 16  1  0
  7 27  4  0
  8 18  1  0
 10 18  1  0
 10 20  1  0
 11 15  4  0
 11 26  1  0
 13 22  4  0
 16 19  1  0
 16 20  2  0
 17 19  4  0
 17 21  4  0
 19 22  4  0
 20 28  1  0
 25 27  4  0
M  END
$$$$

 Created by Python create_sdf_string function

 28 30  0  0  0  0  0  0  0  0999 V2000
   11.4592   11.2893   18.7941 C   0  0  0  0  0  0  0  0  0  0  0  0
    3.4202    7.9009   20.3866 C   0  0  0  0  0  0  0  0  0  0  0  0
   13.5280   10.3522   19.3586 C   0  0  0  0  0  0  0  0  0  0  0  0
    9.6923    5.6468   22.7891 C   0  0  0  0  0  0  0  0  0  0  0  0
   11.7756   10.2554   20.8841 N   0  0  0  0  0  0  0  0  0  0  0  0
    8.9876   11.9370   19.8757 O   0  0  0  0  0  0  0  0  0  0  0  0
    6.0167    8.4478   21.1089 C   0  0  0  0  0  0  0  0  0  0  0  0
   11.0002   10.8890   20.0262 C   0  0  0  0  0  0  0  0  0  0  0  0
    2.1721    7.7393   20.0315 O   0  0  0  0  0  0  0  0  0  0  0  0
    9.1107   10.3880   21.3769 N   0  0  0  0  0  0  0  0  0  0  0  0
    3.9102    9.2008   20.3124 C   0  0  0  0  0  0  0  0  0  0  0  0
   12.7292   10.9960   18.4597 C   0  0  0  0  0  0  0  0  0  0  0  0
    9.3798    6.6793   23.6625 C   0  0  0  0  0  0  0  0  0  0  0  0
   14.7425   10.0739   19.0802 O   0  0  0  0  0  0  0  0  0  0  0  0
    5.1894    9.4673   20.7118 C   0  0  0  0  0  0  0  0  0  0  0  0
    7.3773    8.8224   21.4870 C   0  0  0  0  0  0  0  0  0  0  0  0
    8.4391    6.6439   21.0235 C   0  0  0  0  0  0  0  0  0  0  0  0
    9.6494   11.1353   20.4167 C   0  0  0  0  0  0  0  0  0  0  0  0
    8.1431    7.6829   21.9046 C   0  0  0  0  0  0  0  0  0  0  0  0
    7.7796   10.1314   21.5115 N   0  0  0  0  0  0  0  0  0  0  0  0
    9.2768    5.6183   21.4437 C   0  0  0  0  0  0  0  0  0  0  0  0
    8.6315    7.7322   23.1768 C   0  0  0  0  0  0  0  0  0  0  0  0
   13.0537    9.9821   20.5781 C   0  0  0  0  0  0  0  0  0  0  0  0
   10.3850    4.6575   23.2386 O   0  0  0  0  0  0  0  0  0  0  0  0
    4.2069    6.8450   20.7994 C   0  0  0  0  0  0  0  0  0  0  0  0
    3.0726   10.1043   19.8522 O   0  0  0  0  0  0  0  0  0  0  0  0
    5.5057    7.1196   21.1155 C   0  0  0  0  0  0  0  0  0  0  0  0
    7.0367   11.0229   21.9948 O   0  0  0  0  0  0  0  0  0  0  0  0
  1  8  4  0
  1 12  4  0
  2  9  1  0
  2 11  4  0
  2 25  4  0
  3 12  4  0
  3 14  1  0
  3 23  4  0
  4 13  4  0
  4 21  4  0
  4 24  1  0
  5  8  4  0
  5 23  4  0
  6 18  2  0
  7 15  4  0
  7 16  1  0
  7 27  4  0
  8 18  1  0
 10 18  1  0
 10 20  1  0
 11 15  4  0
 11 26  1  0
 13 22  4  0
 16 19  1  0
 16 20  2  0
 17 19  4  0
 17 21  4  0
 19 22  4  0
 20 28  1  0
 25 27  4  0
M  END
$$$$

 Created by Python create_sdf_string function

 28 30  0  0  0  0  0  0  0  0999 V2000
   11.4592   11.2893   18.7941 C   0  0  0  0  0  0  0  0  0  0  0  0
    3.4202    7.9009   20.3866 C   0  0  0  0  0  0  0  0  0  0  0  0
   13.5280   10.3522   19.3586 C   0  0  0  0  0  0  0  0  0  0  0  0
    9.6923    5.6468   22.7891 C   0  0  0  0  0  0  0  0  0  0  0  0
   11.7756   10.2554   20.8841 N   0  0  0  0  0  0  0  0  0  0  0  0
    8.9876   11.9370   19.8757 O   0  0  0  0  0  0  0  0  0  0  0  0
    6.0167    8.4478   21.1089 C   0  0  0  0  0  0  0  0  0  0  0  0
   11.0002   10.8890   20.0262 C   0  0  0  0  0  0  0  0  0  0  0  0
    2.1721    7.7393   20.0315 O   0  0  0  0  0  0  0  0  0  0  0  0
    9.1107   10.3880   21.3769 N   0  0  0  0  0  0  0  0  0  0  0  0
    3.9102    9.2008   20.3124 C   0  0  0  0  0  0  0  0  0  0  0  0
   12.7292   10.9960   18.4597 C   0  0  0  0  0  0  0  0  0  0  0  0
    9.3798    6.6793   23.6625 C   0  0  0  0  0  0  0  0  0  0  0  0
   14.7425   10.0739   19.0802 O   0  0  0  0  0  0  0  0  0  0  0  0
    5.1894    9.4673   20.7118 C   0  0  0  0  0  0  0  0  0  0  0  0
    7.3773    8.8224   21.4870 C   0  0  0  0  0  0  0  0  0  0  0  0
    8.4391    6.6439   21.0235 C   0  0  0  0  0  0  0  0  0  0  0  0
    9.6494   11.1353   20.4167 C   0  0  0  0  0  0  0  0  0  0  0  0
    8.1431    7.6829   21.9046 C   0  0  0  0  0  0  0  0  0  0  0  0
    7.7796   10.1314   21.5115 N   0  0  0  0  0  0  0  0  0  0  0  0
    9.2768    5.6183   21.4437 C   0  0  0  0  0  0  0  0  0  0  0  0
    8.6315    7.7322   23.1768 C   0  0  0  0  0  0  0  0  0  0  0  0
   13.0537    9.9821   20.5781 C   0  0  0  0  0  0  0  0  0  0  0  0
   10.3850    4.6575   23.2386 O   0  0  0  0  0  0  0  0  0  0  0  0
    4.2069    6.8450   20.7994 C   0  0  0  0  0  0  0  0  0  0  0  0
    3.0726   10.1043   19.8522 O   0  0  0  0  0  0  0  0  0  0  0  0
    5.5057    7.1196   21.1155 C   0  0  0  0  0  0  0  0  0  0  0  0
    7.0367   11.0229   21.9948 O   0  0  0  0  0  0  0  0  0  0  0  0
  1  8  4  0
  1 12  4  0
  2  9  1  0
  2 11  4  0
  2 25  4  0
  3 12  4  0
  3 14  1  0
  3 23  4  0
  4 13  4  0
  4 21  4  0
  4 24  1  0
  5  8  4  0
  5 23  4  0
  6 18  2  0
  7 15  4  0
  7 16  1  0
  7 27  4  0
  8 18  1  0
 10 18  1  0
 10 20  1  0
 11 15  4  0
 11 26  1  0
 13 22  4  0
 16 19  1  0
 16 20  2  0
 17 19  4  0
 17 21  4  0
 19 22  4  0
 20 28  1  0
 25 27  4  0
M  END
$$$$

 Created by Python create_sdf_string function

 28 30  0  0  0  0  0  0  0  0999 V2000
   11.4592   11.2893   18.7941 C   0  0  0  0  0  0  0  0  0  0  0  0
    3.4202    7.9009   20.3866 C   0  0  0  0  0  0  0  0  0  0  0  0
   13.5280   10.3522   19.3586 C   0  0  0  0  0  0  0  0  0  0  0  0
    9.6923    5.6468   22.7891 C   0  0  0  0  0  0  0  0  0  0  0  0
   11.7756   10.2554   20.8841 N   0  0  0  0  0  0  0  0  0  0  0  0
    8.9876   11.9370   19.8757 O   0  0  0  0  0  0  0  0  0  0  0  0
    6.0167    8.4478   21.1089 C   0  0  0  0  0  0  0  0  0  0  0  0
   11.0002   10.8890   20.0262 C   0  0  0  0  0  0  0  0  0  0  0  0
    2.1721    7.7393   20.0315 O   0  0  0  0  0  0  0  0  0  0  0  0
    9.1107   10.3880   21.3769 N   0  0  0  0  0  0  0  0  0  0  0  0
    3.9102    9.2008   20.3124 C   0  0  0  0  0  0  0  0  0  0  0  0
   12.7292   10.9960   18.4597 C   0  0  0  0  0  0  0  0  0  0  0  0
    9.3798    6.6793   23.6625 C   0  0  0  0  0  0  0  0  0  0  0  0
   14.7425   10.0739   19.0802 O   0  0  0  0  0  0  0  0  0  0  0  0
    5.1894    9.4673   20.7118 C   0  0  0  0  0  0  0  0  0  0  0  0
    7.3773    8.8224   21.4870 C   0  0  0  0  0  0  0  0  0  0  0  0
    8.4391    6.6439   21.0235 C   0  0  0  0  0  0  0  0  0  0  0  0
    9.6494   11.1353   20.4167 C   0  0  0  0  0  0  0  0  0  0  0  0
    8.1431    7.6829   21.9046 C   0  0  0  0  0  0  0  0  0  0  0  0
    7.7796   10.1314   21.5115 N   0  0  0  0  0  0  0  0  0  0  0  0
    9.2768    5.6183   21.4437 C   0  0  0  0  0  0  0  0  0  0  0  0
    8.6315    7.7322   23.1768 C   0  0  0  0  0  0  0  0  0  0  0  0
   13.0537    9.9821   20.5781 C   0  0  0  0  0  0  0  0  0  0  0  0
   10.3850    4.6575   23.2386 O   0  0  0  0  0  0  0  0  0  0  0  0
    4.2069    6.8450   20.7994 C   0  0  0  0  0  0  0  0  0  0  0  0
    3.0726   10.1043   19.8522 O   0  0  0  0  0  0  0  0  0  0  0  0
    5.5057    7.1196   21.1155 C   0  0  0  0  0  0  0  0  0  0  0  0
    7.0367   11.0229   21.9948 O   0  0  0  0  0  0  0  0  0  0  0  0
  1  8  4  0
  1 12  4  0
  2  9  1  0
  2 11  4  0
  2 25  4  0
  3 12  4  0
  3 14  1  0
  3 23  4  0
  4 13  4  0
  4 21  4  0
  4 24  1  0
  5  8  4  0
  5 23  4  0
  6 18  2  0
  7 15  4  0
  7 16  1  0
  7 27  4  0
  8 18  1  0
 10 18  1  0
 10 20  1  0
 11 15  4  0
 11 26  1  0
 13 22  4  0
 16 19  1  0
 16 20  2  0
 17 19  4  0
 17 21  4  0
 19 22  4  0
 20 28  1  0
 25 27  4  0
M  END
$$$$

 Created by Python create_sdf_string function

 28 30  0  0  0  0  0  0  0  0999 V2000
   11.4592   11.2893   18.7941 C   0  0  0  0  0  0  0  0  0  0  0  0
    3.4202    7.9009   20.3866 C   0  0  0  0  0  0  0  0  0  0  0  0
   13.5280   10.3522   19.3586 C   0  0  0  0  0  0  0  0  0  0  0  0
    9.6923    5.6468   22.7891 C   0  0  0  0  0  0  0  0  0  0  0  0
   11.7756   10.2554   20.8841 N   0  0  0  0  0  0  0  0  0  0  0  0
    8.9876   11.9370   19.8757 O   0  0  0  0  0  0  0  0  0  0  0  0
    6.0167    8.4478   21.1089 C   0  0  0  0  0  0  0  0  0  0  0  0
   11.0002   10.8890   20.0262 C   0  0  0  0  0  0  0  0  0  0  0  0
    2.1721    7.7393   20.0315 O   0  0  0  0  0  0  0  0  0  0  0  0
    9.1107   10.3880   21.3769 N   0  0  0  0  0  0  0  0  0  0  0  0
    3.9102    9.2008   20.3124 C   0  0  0  0  0  0  0  0  0  0  0  0
   12.7292   10.9960   18.4597 C   0  0  0  0  0  0  0  0  0  0  0  0
    9.3798    6.6793   23.6625 C   0  0  0  0  0  0  0  0  0  0  0  0
   14.7425   10.0739   19.0802 O   0  0  0  0  0  0  0  0  0  0  0  0
    5.1894    9.4673   20.7118 C   0  0  0  0  0  0  0  0  0  0  0  0
    7.3773    8.8224   21.4870 C   0  0  0  0  0  0  0  0  0  0  0  0
    8.4391    6.6439   21.0235 C   0  0  0  0  0  0  0  0  0  0  0  0
    9.6494   11.1353   20.4167 C   0  0  0  0  0  0  0  0  0  0  0  0
    8.1431    7.6829   21.9046 C   0  0  0  0  0  0  0  0  0  0  0  0
    7.7796   10.1314   21.5115 N   0  0  0  0  0  0  0  0  0  0  0  0
    9.2768    5.6183   21.4437 C   0  0  0  0  0  0  0  0  0  0  0  0
    8.6315    7.7322   23.1768 C   0  0  0  0  0  0  0  0  0  0  0  0
   13.0537    9.9821   20.5781 C   0  0  0  0  0  0  0  0  0  0  0  0
   10.3850    4.6575   23.2386 O   0  0  0  0  0  0  0  0  0  0  0  0
    4.2069    6.8450   20.7994 C   0  0  0  0  0  0  0  0  0  0  0  0
    3.0726   10.1043   19.8522 O   0  0  0  0  0  0  0  0  0  0  0  0
    5.5057    7.1196   21.1155 C   0  0  0  0  0  0  0  0  0  0  0  0
    7.0367   11.0229   21.9948 O   0  0  0  0  0  0  0  0  0  0  0  0
  1  8  4  0
  1 12  4  0
  2  9  1  0
  2 11  4  0
  2 25  4  0
  3 12  4  0
  3 14  1  0
  3 23  4  0
  4 13  4  0
  4 21  4  0
  4 24  1  0
  5  8  4  0
  5 23  4  0
  6 18  2  0
  7 15  4  0
  7 16  1  0
  7 27  4  0
  8 18  1  0
 10 18  1  0
 10 20  1  0
 11 15  4  0
 11 26  1  0
 13 22  4  0
 16 19  1  0
 16 20  2  0
 17 19  4  0
 17 21  4  0
 19 22  4  0
 20 28  1  0
 25 27  4  0
M  END
$$$$

 Created by Python create_sdf_string function

 28 30  0  0  0  0  0  0  0  0999 V2000
   11.4592   11.2893   18.7941 C   0  0  0  0  0  0  0  0  0  0  0  0
    3.4202    7.9009   20.3866 C   0  0  0  0  0  0  0  0  0  0  0  0
   13.5280   10.3522   19.3586 C   0  0  0  0  0  0  0  0  0  0  0  0
    9.6923    5.6468   22.7891 C   0  0  0  0  0  0  0  0  0  0  0  0
   11.7756   10.2554   20.8841 N   0  0  0  0  0  0  0  0  0  0  0  0
    8.9876   11.9370   19.8757 O   0  0  0  0  0  0  0  0  0  0  0  0
    6.0167    8.4478   21.1089 C   0  0  0  0  0  0  0  0  0  0  0  0
   11.0002   10.8890   20.0262 C   0  0  0  0  0  0  0  0  0  0  0  0
    2.1721    7.7393   20.0315 O   0  0  0  0  0  0  0  0  0  0  0  0
    9.1107   10.3880   21.3769 N   0  0  0  0  0  0  0  0  0  0  0  0
    3.9102    9.2008   20.3124 C   0  0  0  0  0  0  0  0  0  0  0  0
   12.7292   10.9960   18.4597 C   0  0  0  0  0  0  0  0  0  0  0  0
    9.3798    6.6793   23.6625 C   0  0  0  0  0  0  0  0  0  0  0  0
   14.7425   10.0739   19.0802 O   0  0  0  0  0  0  0  0  0  0  0  0
    5.1894    9.4673   20.7118 C   0  0  0  0  0  0  0  0  0  0  0  0
    7.3773    8.8224   21.4870 C   0  0  0  0  0  0  0  0  0  0  0  0
    8.4391    6.6439   21.0235 C   0  0  0  0  0  0  0  0  0  0  0  0
    9.6494   11.1353   20.4167 C   0  0  0  0  0  0  0  0  0  0  0  0
    8.1431    7.6829   21.9046 C   0  0  0  0  0  0  0  0  0  0  0  0
    7.7796   10.1314   21.5115 N   0  0  0  0  0  0  0  0  0  0  0  0
    9.2768    5.6183   21.4437 C   0  0  0  0  0  0  0  0  0  0  0  0
    8.6315    7.7322   23.1768 C   0  0  0  0  0  0  0  0  0  0  0  0
   13.0537    9.9821   20.5781 C   0  0  0  0  0  0  0  0  0  0  0  0
   10.3850    4.6575   23.2386 O   0  0  0  0  0  0  0  0  0  0  0  0
    4.2069    6.8450   20.7994 C   0  0  0  0  0  0  0  0  0  0  0  0
    3.0726   10.1043   19.8522 O   0  0  0  0  0  0  0  0  0  0  0  0
    5.5057    7.1196   21.1155 C   0  0  0  0  0  0  0  0  0  0  0  0
    7.0367   11.0229   21.9948 O   0  0  0  0  0  0  0  0  0  0  0  0
  1  8  4  0
  1 12  4  0
  2  9  1  0
  2 11  4  0
  2 25  4  0
  3 12  4  0
  3 14  1  0
  3 23  4  0
  4 13  4  0
  4 21  4  0
  4 24  1  0
  5  8  4  0
  5 23  4  0
  6 18  2  0
  7 15  4  0
  7 16  1  0
  7 27  4  0
  8 18  1  0
 10 18  1  0
 10 20  1  0
 11 15  4  0
 11 26  1  0
 13 22  4  0
 16 19  1  0
 16 20  2  0
 17 19  4  0
 17 21  4  0
 19 22  4  0
 20 28  1  0
 25 27  4  0
M  END
$$$$

 Created by Python create_sdf_string function

 28 30  0  0  0  0  0  0  0  0999 V2000
   11.4592   11.2893   18.7941 C   0  0  0  0  0  0  0  0  0  0  0  0
    3.4202    7.9009   20.3866 C   0  0  0  0  0  0  0  0  0  0  0  0
   13.5280   10.3522   19.3586 C   0  0  0  0  0  0  0  0  0  0  0  0
    9.6923    5.6468   22.7891 C   0  0  0  0  0  0  0  0  0  0  0  0
   11.7756   10.2554   20.8841 N   0  0  0  0  0  0  0  0  0  0  0  0
    8.9876   11.9370   19.8757 O   0  0  0  0  0  0  0  0  0  0  0  0
    6.0167    8.4478   21.1089 C   0  0  0  0  0  0  0  0  0  0  0  0
   11.0002   10.8890   20.0262 C   0  0  0  0  0  0  0  0  0  0  0  0
    2.1721    7.7393   20.0315 O   0  0  0  0  0  0  0  0  0  0  0  0
    9.1107   10.3880   21.3769 N   0  0  0  0  0  0  0  0  0  0  0  0
    3.9102    9.2008   20.3124 C   0  0  0  0  0  0  0  0  0  0  0  0
   12.7292   10.9960   18.4597 C   0  0  0  0  0  0  0  0  0  0  0  0
    9.3798    6.6793   23.6625 C   0  0  0  0  0  0  0  0  0  0  0  0
   14.7425   10.0739   19.0802 O   0  0  0  0  0  0  0  0  0  0  0  0
    5.1894    9.4673   20.7118 C   0  0  0  0  0  0  0  0  0  0  0  0
    7.3773    8.8224   21.4870 C   0  0  0  0  0  0  0  0  0  0  0  0
    8.4391    6.6439   21.0235 C   0  0  0  0  0  0  0  0  0  0  0  0
    9.6494   11.1353   20.4167 C   0  0  0  0  0  0  0  0  0  0  0  0
    8.1431    7.6829   21.9046 C   0  0  0  0  0  0  0  0  0  0  0  0
    7.7796   10.1314   21.5115 N   0  0  0  0  0  0  0  0  0  0  0  0
    9.2768    5.6183   21.4437 C   0  0  0  0  0  0  0  0  0  0  0  0
    8.6315    7.7322   23.1768 C   0  0  0  0  0  0  0  0  0  0  0  0
   13.0537    9.9821   20.5781 C   0  0  0  0  0  0  0  0  0  0  0  0
   10.3850    4.6575   23.2386 O   0  0  0  0  0  0  0  0  0  0  0  0
    4.2069    6.8450   20.7994 C   0  0  0  0  0  0  0  0  0  0  0  0
    3.0726   10.1043   19.8522 O   0  0  0  0  0  0  0  0  0  0  0  0
    5.5057    7.1196   21.1155 C   0  0  0  0  0  0  0  0  0  0  0  0
    7.0367   11.0229   21.9948 O   0  0  0  0  0  0  0  0  0  0  0  0
  1  8  4  0
  1 12  4  0
  2  9  1  0
  2 11  4  0
  2 25  4  0
  3 12  4  0
  3 14  1  0
  3 23  4  0
  4 13  4  0
  4 21  4  0
  4 24  1  0
  5  8  4  0
  5 23  4  0
  6 18  2  0
  7 15  4  0
  7 16  1  0
  7 27  4  0
  8 18  1  0
 10 18  1  0
 10 20  1  0
 11 15  4  0
 11 26  1  0
 13 22  4  0
 16 19  1  0
 16 20  2  0
 17 19  4  0
 17 21  4  0
 19 22  4  0
 20 28  1  0
 25 27  4  0
M  END
$$$$

 Created by Python create_sdf_string function

 28 30  0  0  0  0  0  0  0  0999 V2000
   11.4592   11.2893   18.7941 C   0  0  0  0  0  0  0  0  0  0  0  0
    3.4202    7.9009   20.3866 C   0  0  0  0  0  0  0  0  0  0  0  0
   13.5280   10.3522   19.3586 C   0  0  0  0  0  0  0  0  0  0  0  0
    9.6923    5.6468   22.7891 C   0  0  0  0  0  0  0  0  0  0  0  0
   11.7756   10.2554   20.8841 N   0  0  0  0  0  0  0  0  0  0  0  0
    8.9876   11.9370   19.8757 O   0  0  0  0  0  0  0  0  0  0  0  0
    6.0167    8.4478   21.1089 C   0  0  0  0  0  0  0  0  0  0  0  0
   11.0002   10.8890   20.0262 C   0  0  0  0  0  0  0  0  0  0  0  0
    2.1721    7.7393   20.0315 O   0  0  0  0  0  0  0  0  0  0  0  0
    9.1107   10.3880   21.3769 N   0  0  0  0  0  0  0  0  0  0  0  0
    3.9102    9.2008   20.3124 C   0  0  0  0  0  0  0  0  0  0  0  0
   12.7292   10.9960   18.4597 C   0  0  0  0  0  0  0  0  0  0  0  0
    9.3798    6.6793   23.6625 C   0  0  0  0  0  0  0  0  0  0  0  0
   14.7425   10.0739   19.0802 O   0  0  0  0  0  0  0  0  0  0  0  0
    5.1894    9.4673   20.7118 C   0  0  0  0  0  0  0  0  0  0  0  0
    7.3773    8.8224   21.4870 C   0  0  0  0  0  0  0  0  0  0  0  0
    8.4391    6.6439   21.0235 C   0  0  0  0  0  0  0  0  0  0  0  0
    9.6494   11.1353   20.4167 C   0  0  0  0  0  0  0  0  0  0  0  0
    8.1431    7.6829   21.9046 C   0  0  0  0  0  0  0  0  0  0  0  0
    7.7796   10.1314   21.5115 N   0  0  0  0  0  0  0  0  0  0  0  0
    9.2768    5.6183   21.4437 C   0  0  0  0  0  0  0  0  0  0  0  0
    8.6315    7.7322   23.1768 C   0  0  0  0  0  0  0  0  0  0  0  0
   13.0537    9.9821   20.5781 C   0  0  0  0  0  0  0  0  0  0  0  0
   10.3850    4.6575   23.2386 O   0  0  0  0  0  0  0  0  0  0  0  0
    4.2069    6.8450   20.7994 C   0  0  0  0  0  0  0  0  0  0  0  0
    3.0726   10.1043   19.8522 O   0  0  0  0  0  0  0  0  0  0  0  0
    5.5057    7.1196   21.1155 C   0  0  0  0  0  0  0  0  0  0  0  0
    7.0367   11.0229   21.9948 O   0  0  0  0  0  0  0  0  0  0  0  0
  1  8  4  0
  1 12  4  0
  2  9  1  0
  2 11  4  0
  2 25  4  0
  3 12  4  0
  3 14  1  0
  3 23  4  0
  4 13  4  0
  4 21  4  0
  4 24  1  0
  5  8  4  0
  5 23  4  0
  6 18  2  0
  7 15  4  0
  7 16  1  0
  7 27  4  0
  8 18  1  0
 10 18  1  0
 10 20  1  0
 11 15  4  0
 11 26  1  0
 13 22  4  0
 16 19  1  0
 16 20  2  0
 17 19  4  0
 17 21  4  0
 19 22  4  0
 20 28  1  0
 25 27  4  0
M  END
$$$$

 Created by Python create_sdf_string function

 28 30  0  0  0  0  0  0  0  0999 V2000
   11.4592   11.2893   18.7941 C   0  0  0  0  0  0  0  0  0  0  0  0
    3.4202    7.9009   20.3866 C   0  0  0  0  0  0  0  0  0  0  0  0
   13.5280   10.3522   19.3586 C   0  0  0  0  0  0  0  0  0  0  0  0
    9.6923    5.6468   22.7891 C   0  0  0  0  0  0  0  0  0  0  0  0
   11.7756   10.2554   20.8841 N   0  0  0  0  0  0  0  0  0  0  0  0
    8.9876   11.9370   19.8757 O   0  0  0  0  0  0  0  0  0  0  0  0
    6.0167    8.4478   21.1089 C   0  0  0  0  0  0  0  0  0  0  0  0
   11.0002   10.8890   20.0262 C   0  0  0  0  0  0  0  0  0  0  0  0
    2.1721    7.7393   20.0315 O   0  0  0  0  0  0  0  0  0  0  0  0
    9.1107   10.3880   21.3769 N   0  0  0  0  0  0  0  0  0  0  0  0
    3.9102    9.2008   20.3124 C   0  0  0  0  0  0  0  0  0  0  0  0
   12.7292   10.9960   18.4597 C   0  0  0  0  0  0  0  0  0  0  0  0
    9.3798    6.6793   23.6625 C   0  0  0  0  0  0  0  0  0  0  0  0
   14.7425   10.0739   19.0802 O   0  0  0  0  0  0  0  0  0  0  0  0
    5.1894    9.4673   20.7118 C   0  0  0  0  0  0  0  0  0  0  0  0
    7.3773    8.8224   21.4870 C   0  0  0  0  0  0  0  0  0  0  0  0
    8.4391    6.6439   21.0235 C   0  0  0  0  0  0  0  0  0  0  0  0
    9.6494   11.1353   20.4167 C   0  0  0  0  0  0  0  0  0  0  0  0
    8.1431    7.6829   21.9046 C   0  0  0  0  0  0  0  0  0  0  0  0
    7.7796   10.1314   21.5115 N   0  0  0  0  0  0  0  0  0  0  0  0
    9.2768    5.6183   21.4437 C   0  0  0  0  0  0  0  0  0  0  0  0
    8.6315    7.7322   23.1768 C   0  0  0  0  0  0  0  0  0  0  0  0
   13.0537    9.9821   20.5781 C   0  0  0  0  0  0  0  0  0  0  0  0
   10.3850    4.6575   23.2386 O   0  0  0  0  0  0  0  0  0  0  0  0
    4.2069    6.8450   20.7994 C   0  0  0  0  0  0  0  0  0  0  0  0
    3.0726   10.1043   19.8522 O   0  0  0  0  0  0  0  0  0  0  0  0
    5.5057    7.1196   21.1155 C   0  0  0  0  0  0  0  0  0  0  0  0
    7.0367   11.0229   21.9948 O   0  0  0  0  0  0  0  0  0  0  0  0
  1  8  4  0
  1 12  4  0
  2  9  1  0
  2 11  4  0
  2 25  4  0
  3 12  4  0
  3 14  1  0
  3 23  4  0
  4 13  4  0
  4 21  4  0
  4 24  1  0
  5  8  4  0
  5 23  4  0
  6 18  2  0
  7 15  4  0
  7 16  1  0
  7 27  4  0
  8 18  1  0
 10 18  1  0
 10 20  1  0
 11 15  4  0
 11 26  1  0
 13 22  4  0
 16 19  1  0
 16 20  2  0
 17 19  4  0
 17 21  4  0
 19 22  4  0
 20 28  1  0
 25 27  4  0
M  END
$$$$

 Created by Python create_sdf_string function

 28 30  0  0  0  0  0  0  0  0999 V2000
   11.4592   11.2893   18.7941 C   0  0  0  0  0  0  0  0  0  0  0  0
    3.4202    7.9009   20.3866 C   0  0  0  0  0  0  0  0  0  0  0  0
   13.5280   10.3522   19.3586 C   0  0  0  0  0  0  0  0  0  0  0  0
    9.6923    5.6468   22.7891 C   0  0  0  0  0  0  0  0  0  0  0  0
   11.7756   10.2554   20.8841 N   0  0  0  0  0  0  0  0  0  0  0  0
    8.9876   11.9370   19.8757 O   0  0  0  0  0  0  0  0  0  0  0  0
    6.0167    8.4478   21.1089 C   0  0  0  0  0  0  0  0  0  0  0  0
   11.0002   10.8890   20.0262 C   0  0  0  0  0  0  0  0  0  0  0  0
    2.1721    7.7393   20.0315 O   0  0  0  0  0  0  0  0  0  0  0  0
    9.1107   10.3880   21.3769 N   0  0  0  0  0  0  0  0  0  0  0  0
    3.9102    9.2008   20.3124 C   0  0  0  0  0  0  0  0  0  0  0  0
   12.7292   10.9960   18.4597 C   0  0  0  0  0  0  0  0  0  0  0  0
    9.3798    6.6793   23.6625 C   0  0  0  0  0  0  0  0  0  0  0  0
   14.7425   10.0739   19.0802 O   0  0  0  0  0  0  0  0  0  0  0  0
    5.1894    9.4673   20.7118 C   0  0  0  0  0  0  0  0  0  0  0  0
    7.3773    8.8224   21.4870 C   0  0  0  0  0  0  0  0  0  0  0  0
    8.4391    6.6439   21.0235 C   0  0  0  0  0  0  0  0  0  0  0  0
    9.6494   11.1353   20.4167 C   0  0  0  0  0  0  0  0  0  0  0  0
    8.1431    7.6829   21.9046 C   0  0  0  0  0  0  0  0  0  0  0  0
    7.7796   10.1314   21.5115 N   0  0  0  0  0  0  0  0  0  0  0  0
    9.2768    5.6183   21.4437 C   0  0  0  0  0  0  0  0  0  0  0  0
    8.6315    7.7322   23.1768 C   0  0  0  0  0  0  0  0  0  0  0  0
   13.0537    9.9821   20.5781 C   0  0  0  0  0  0  0  0  0  0  0  0
   10.3850    4.6575   23.2386 O   0  0  0  0  0  0  0  0  0  0  0  0
    4.2069    6.8450   20.7994 C   0  0  0  0  0  0  0  0  0  0  0  0
    3.0726   10.1043   19.8522 O   0  0  0  0  0  0  0  0  0  0  0  0
    5.5057    7.1196   21.1155 C   0  0  0  0  0  0  0  0  0  0  0  0
    7.0367   11.0229   21.9948 O   0  0  0  0  0  0  0  0  0  0  0  0
  1  8  4  0
  1 12  4  0
  2  9  1  0
  2 11  4  0
  2 25  4  0
  3 12  4  0
  3 14  1  0
  3 23  4  0
  4 13  4  0
  4 21  4  0
  4 24  1  0
  5  8  4  0
  5 23  4  0
  6 18  2  0
  7 15  4  0
  7 16  1  0
  7 27  4  0
  8 18  1  0
 10 18  1  0
 10 20  1  0
 11 15  4  0
 11 26  1  0
 13 22  4  0
 16 19  1  0
 16 20  2  0
 17 19  4  0
 17 21  4  0
 19 22  4  0
 20 28  1  0
 25 27  4  0
M  END
$$$$

 Created by Python create_sdf_string function

 28 30  0  0  0  0  0  0  0  0999 V2000
   11.4592   11.2893   18.7941 C   0  0  0  0  0  0  0  0  0  0  0  0
    3.4202    7.9009   20.3866 C   0  0  0  0  0  0  0  0  0  0  0  0
   13.5280   10.3522   19.3586 C   0  0  0  0  0  0  0  0  0  0  0  0
    9.6923    5.6468   22.7891 C   0  0  0  0  0  0  0  0  0  0  0  0
   11.7756   10.2554   20.8841 N   0  0  0  0  0  0  0  0  0  0  0  0
    8.9876   11.9370   19.8757 O   0  0  0  0  0  0  0  0  0  0  0  0
    6.0167    8.4478   21.1089 C   0  0  0  0  0  0  0  0  0  0  0  0
   11.0002   10.8890   20.0262 C   0  0  0  0  0  0  0  0  0  0  0  0
    2.1721    7.7393   20.0315 O   0  0  0  0  0  0  0  0  0  0  0  0
    9.1107   10.3880   21.3769 N   0  0  0  0  0  0  0  0  0  0  0  0
    3.9102    9.2008   20.3124 C   0  0  0  0  0  0  0  0  0  0  0  0
   12.7292   10.9960   18.4597 C   0  0  0  0  0  0  0  0  0  0  0  0
    9.3798    6.6793   23.6625 C   0  0  0  0  0  0  0  0  0  0  0  0
   14.7425   10.0739   19.0802 O   0  0  0  0  0  0  0  0  0  0  0  0
    5.1894    9.4673   20.7118 C   0  0  0  0  0  0  0  0  0  0  0  0
    7.3773    8.8224   21.4870 C   0  0  0  0  0  0  0  0  0  0  0  0
    8.4391    6.6439   21.0235 C   0  0  0  0  0  0  0  0  0  0  0  0
    9.6494   11.1353   20.4167 C   0  0  0  0  0  0  0  0  0  0  0  0
    8.1431    7.6829   21.9046 C   0  0  0  0  0  0  0  0  0  0  0  0
    7.7796   10.1314   21.5115 N   0  0  0  0  0  0  0  0  0  0  0  0
    9.2768    5.6183   21.4437 C   0  0  0  0  0  0  0  0  0  0  0  0
    8.6315    7.7322   23.1768 C   0  0  0  0  0  0  0  0  0  0  0  0
   13.0537    9.9821   20.5781 C   0  0  0  0  0  0  0  0  0  0  0  0
   10.3850    4.6575   23.2386 O   0  0  0  0  0  0  0  0  0  0  0  0
    4.2069    6.8450   20.7994 C   0  0  0  0  0  0  0  0  0  0  0  0
    3.0726   10.1043   19.8522 O   0  0  0  0  0  0  0  0  0  0  0  0
    5.5057    7.1196   21.1155 C   0  0  0  0  0  0  0  0  0  0  0  0
    7.0367   11.0229   21.9948 O   0  0  0  0  0  0  0  0  0  0  0  0
  1  8  4  0
  1 12  4  0
  2  9  1  0
  2 11  4  0
  2 25  4  0
  3 12  4  0
  3 14  1  0
  3 23  4  0
  4 13  4  0
  4 21  4  0
  4 24  1  0
  5  8  4  0
  5 23  4  0
  6 18  2  0
  7 15  4  0
  7 16  1  0
  7 27  4  0
  8 18  1  0
 10 18  1  0
 10 20  1  0
 11 15  4  0
 11 26  1  0
 13 22  4  0
 16 19  1  0
 16 20  2  0
 17 19  4  0
 17 21  4  0
 19 22  4  0
 20 28  1  0
 25 27  4  0
M  END
$$$$

 Created by Python create_sdf_string function

 28 30  0  0  0  0  0  0  0  0999 V2000
   11.4592   11.2893   18.7941 C   0  0  0  0  0  0  0  0  0  0  0  0
    3.4202    7.9009   20.3866 C   0  0  0  0  0  0  0  0  0  0  0  0
   13.5280   10.3522   19.3586 C   0  0  0  0  0  0  0  0  0  0  0  0
    9.6923    5.6468   22.7891 C   0  0  0  0  0  0  0  0  0  0  0  0
   11.7756   10.2554   20.8841 N   0  0  0  0  0  0  0  0  0  0  0  0
    8.9876   11.9370   19.8757 O   0  0  0  0  0  0  0  0  0  0  0  0
    6.0167    8.4478   21.1089 C   0  0  0  0  0  0  0  0  0  0  0  0
   11.0002   10.8890   20.0262 C   0  0  0  0  0  0  0  0  0  0  0  0
    2.1721    7.7393   20.0315 O   0  0  0  0  0  0  0  0  0  0  0  0
    9.1107   10.3880   21.3769 N   0  0  0  0  0  0  0  0  0  0  0  0
    3.9102    9.2008   20.3124 C   0  0  0  0  0  0  0  0  0  0  0  0
   12.7292   10.9960   18.4597 C   0  0  0  0  0  0  0  0  0  0  0  0
    9.3798    6.6793   23.6625 C   0  0  0  0  0  0  0  0  0  0  0  0
   14.7425   10.0739   19.0802 O   0  0  0  0  0  0  0  0  0  0  0  0
    5.1894    9.4673   20.7118 C   0  0  0  0  0  0  0  0  0  0  0  0
    7.3773    8.8224   21.4870 C   0  0  0  0  0  0  0  0  0  0  0  0
    8.4391    6.6439   21.0235 C   0  0  0  0  0  0  0  0  0  0  0  0
    9.6494   11.1353   20.4167 C   0  0  0  0  0  0  0  0  0  0  0  0
    8.1431    7.6829   21.9046 C   0  0  0  0  0  0  0  0  0  0  0  0
    7.7796   10.1314   21.5115 N   0  0  0  0  0  0  0  0  0  0  0  0
    9.2768    5.6183   21.4437 C   0  0  0  0  0  0  0  0  0  0  0  0
    8.6315    7.7322   23.1768 C   0  0  0  0  0  0  0  0  0  0  0  0
   13.0537    9.9821   20.5781 C   0  0  0  0  0  0  0  0  0  0  0  0
   10.3850    4.6575   23.2386 O   0  0  0  0  0  0  0  0  0  0  0  0
    4.2069    6.8450   20.7994 C   0  0  0  0  0  0  0  0  0  0  0  0
    3.0726   10.1043   19.8522 O   0  0  0  0  0  0  0  0  0  0  0  0
    5.5057    7.1196   21.1155 C   0  0  0  0  0  0  0  0  0  0  0  0
    7.0367   11.0229   21.9948 O   0  0  0  0  0  0  0  0  0  0  0  0
  1  8  4  0
  1 12  4  0
  2  9  1  0
  2 11  4  0
  2 25  4  0
  3 12  4  0
  3 14  1  0
  3 23  4  0
  4 13  4  0
  4 21  4  0
  4 24  1  0
  5  8  4  0
  5 23  4  0
  6 18  2  0
  7 15  4  0
  7 16  1  0
  7 27  4  0
  8 18  1  0
 10 18  1  0
 10 20  1  0
 11 15  4  0
 11 26  1  0
 13 22  4  0
 16 19  1  0
 16 20  2  0
 17 19  4  0
 17 21  4  0
 19 22  4  0
 20 28  1  0
 25 27  4  0
M  END
$$$$

 Created by Python create_sdf_string function

 28 30  0  0  0  0  0  0  0  0999 V2000
   11.4592   11.2893   18.7941 C   0  0  0  0  0  0  0  0  0  0  0  0
    3.4202    7.9009   20.3866 C   0  0  0  0  0  0  0  0  0  0  0  0
   13.5280   10.3522   19.3586 C   0  0  0  0  0  0  0  0  0  0  0  0
    9.6923    5.6468   22.7891 C   0  0  0  0  0  0  0  0  0  0  0  0
   11.7756   10.2554   20.8841 N   0  0  0  0  0  0  0  0  0  0  0  0
    8.9876   11.9370   19.8757 O   0  0  0  0  0  0  0  0  0  0  0  0
    6.0167    8.4478   21.1089 C   0  0  0  0  0  0  0  0  0  0  0  0
   11.0002   10.8890   20.0262 C   0  0  0  0  0  0  0  0  0  0  0  0
    2.1721    7.7393   20.0315 O   0  0  0  0  0  0  0  0  0  0  0  0
    9.1107   10.3880   21.3769 N   0  0  0  0  0  0  0  0  0  0  0  0
    3.9102    9.2008   20.3124 C   0  0  0  0  0  0  0  0  0  0  0  0
   12.7292   10.9960   18.4597 C   0  0  0  0  0  0  0  0  0  0  0  0
    9.3798    6.6793   23.6625 C   0  0  0  0  0  0  0  0  0  0  0  0
   14.7425   10.0739   19.0802 O   0  0  0  0  0  0  0  0  0  0  0  0
    5.1894    9.4673   20.7118 C   0  0  0  0  0  0  0  0  0  0  0  0
    7.3773    8.8224   21.4870 C   0  0  0  0  0  0  0  0  0  0  0  0
    8.4391    6.6439   21.0235 C   0  0  0  0  0  0  0  0  0  0  0  0
    9.6494   11.1353   20.4167 C   0  0  0  0  0  0  0  0  0  0  0  0
    8.1431    7.6829   21.9046 C   0  0  0  0  0  0  0  0  0  0  0  0
    7.7796   10.1314   21.5115 N   0  0  0  0  0  0  0  0  0  0  0  0
    9.2768    5.6183   21.4437 C   0  0  0  0  0  0  0  0  0  0  0  0
    8.6315    7.7322   23.1768 C   0  0  0  0  0  0  0  0  0  0  0  0
   13.0537    9.9821   20.5781 C   0  0  0  0  0  0  0  0  0  0  0  0
   10.3850    4.6575   23.2386 O   0  0  0  0  0  0  0  0  0  0  0  0
    4.2069    6.8450   20.7994 C   0  0  0  0  0  0  0  0  0  0  0  0
    3.0726   10.1043   19.8522 O   0  0  0  0  0  0  0  0  0  0  0  0
    5.5057    7.1196   21.1155 C   0  0  0  0  0  0  0  0  0  0  0  0
    7.0367   11.0229   21.9948 O   0  0  0  0  0  0  0  0  0  0  0  0
  1  8  4  0
  1 12  4  0
  2  9  1  0
  2 11  4  0
  2 25  4  0
  3 12  4  0
  3 14  1  0
  3 23  4  0
  4 13  4  0
  4 21  4  0
  4 24  1  0
  5  8  4  0
  5 23  4  0
  6 18  2  0
  7 15  4  0
  7 16  1  0
  7 27  4  0
  8 18  1  0
 10 18  1  0
 10 20  1  0
 11 15  4  0
 11 26  1  0
 13 22  4  0
 16 19  1  0
 16 20  2  0
 17 19  4  0
 17 21  4  0
 19 22  4  0
 20 28  1  0
 25 27  4  0
M  END
$$$$

 Created by Python create_sdf_string function

 28 30  0  0  0  0  0  0  0  0999 V2000
   11.4592   11.2893   18.7941 C   0  0  0  0  0  0  0  0  0  0  0  0
    3.4202    7.9009   20.3866 C   0  0  0  0  0  0  0  0  0  0  0  0
   13.5280   10.3522   19.3586 C   0  0  0  0  0  0  0  0  0  0  0  0
    9.6923    5.6468   22.7891 C   0  0  0  0  0  0  0  0  0  0  0  0
   11.7756   10.2554   20.8841 N   0  0  0  0  0  0  0  0  0  0  0  0
    8.9876   11.9370   19.8757 O   0  0  0  0  0  0  0  0  0  0  0  0
    6.0167    8.4478   21.1089 C   0  0  0  0  0  0  0  0  0  0  0  0
   11.0002   10.8890   20.0262 C   0  0  0  0  0  0  0  0  0  0  0  0
    2.1721    7.7393   20.0315 O   0  0  0  0  0  0  0  0  0  0  0  0
    9.1107   10.3880   21.3769 N   0  0  0  0  0  0  0  0  0  0  0  0
    3.9102    9.2008   20.3124 C   0  0  0  0  0  0  0  0  0  0  0  0
   12.7292   10.9960   18.4597 C   0  0  0  0  0  0  0  0  0  0  0  0
    9.3798    6.6793   23.6625 C   0  0  0  0  0  0  0  0  0  0  0  0
   14.7425   10.0739   19.0802 O   0  0  0  0  0  0  0  0  0  0  0  0
    5.1894    9.4673   20.7118 C   0  0  0  0  0  0  0  0  0  0  0  0
    7.3773    8.8224   21.4870 C   0  0  0  0  0  0  0  0  0  0  0  0
    8.4391    6.6439   21.0235 C   0  0  0  0  0  0  0  0  0  0  0  0
    9.6494   11.1353   20.4167 C   0  0  0  0  0  0  0  0  0  0  0  0
    8.1431    7.6829   21.9046 C   0  0  0  0  0  0  0  0  0  0  0  0
    7.7796   10.1314   21.5115 N   0  0  0  0  0  0  0  0  0  0  0  0
    9.2768    5.6183   21.4437 C   0  0  0  0  0  0  0  0  0  0  0  0
    8.6315    7.7322   23.1768 C   0  0  0  0  0  0  0  0  0  0  0  0
   13.0537    9.9821   20.5781 C   0  0  0  0  0  0  0  0  0  0  0  0
   10.3850    4.6575   23.2386 O   0  0  0  0  0  0  0  0  0  0  0  0
    4.2069    6.8450   20.7994 C   0  0  0  0  0  0  0  0  0  0  0  0
    3.0726   10.1043   19.8522 O   0  0  0  0  0  0  0  0  0  0  0  0
    5.5057    7.1196   21.1155 C   0  0  0  0  0  0  0  0  0  0  0  0
    7.0367   11.0229   21.9948 O   0  0  0  0  0  0  0  0  0  0  0  0
  1  8  4  0
  1 12  4  0
  2  9  1  0
  2 11  4  0
  2 25  4  0
  3 12  4  0
  3 14  1  0
  3 23  4  0
  4 13  4  0
  4 21  4  0
  4 24  1  0
  5  8  4  0
  5 23  4  0
  6 18  2  0
  7 15  4  0
  7 16  1  0
  7 27  4  0
  8 18  1  0
 10 18  1  0
 10 20  1  0
 11 15  4  0
 11 26  1  0
 13 22  4  0
 16 19  1  0
 16 20  2  0
 17 19  4  0
 17 21  4  0
 19 22  4  0
 20 28  1  0
 25 27  4  0
M  END
$$$$

 Created by Python create_sdf_string function

 28 30  0  0  0  0  0  0  0  0999 V2000
   11.4592   11.2893   18.7941 C   0  0  0  0  0  0  0  0  0  0  0  0
    3.4202    7.9009   20.3866 C   0  0  0  0  0  0  0  0  0  0  0  0
   13.5280   10.3522   19.3586 C   0  0  0  0  0  0  0  0  0  0  0  0
    9.6923    5.6468   22.7891 C   0  0  0  0  0  0  0  0  0  0  0  0
   11.7756   10.2554   20.8841 N   0  0  0  0  0  0  0  0  0  0  0  0
    8.9876   11.9370   19.8757 O   0  0  0  0  0  0  0  0  0  0  0  0
    6.0167    8.4478   21.1089 C   0  0  0  0  0  0  0  0  0  0  0  0
   11.0002   10.8890   20.0262 C   0  0  0  0  0  0  0  0  0  0  0  0
    2.1721    7.7393   20.0315 O   0  0  0  0  0  0  0  0  0  0  0  0
    9.1107   10.3880   21.3769 N   0  0  0  0  0  0  0  0  0  0  0  0
    3.9102    9.2008   20.3124 C   0  0  0  0  0  0  0  0  0  0  0  0
   12.7292   10.9960   18.4597 C   0  0  0  0  0  0  0  0  0  0  0  0
    9.3798    6.6793   23.6625 C   0  0  0  0  0  0  0  0  0  0  0  0
   14.7425   10.0739   19.0802 O   0  0  0  0  0  0  0  0  0  0  0  0
    5.1894    9.4673   20.7118 C   0  0  0  0  0  0  0  0  0  0  0  0
    7.3773    8.8224   21.4870 C   0  0  0  0  0  0  0  0  0  0  0  0
    8.4391    6.6439   21.0235 C   0  0  0  0  0  0  0  0  0  0  0  0
    9.6494   11.1353   20.4167 C   0  0  0  0  0  0  0  0  0  0  0  0
    8.1431    7.6829   21.9046 C   0  0  0  0  0  0  0  0  0  0  0  0
    7.7796   10.1314   21.5115 N   0  0  0  0  0  0  0  0  0  0  0  0
    9.2768    5.6183   21.4437 C   0  0  0  0  0  0  0  0  0  0  0  0
    8.6315    7.7322   23.1768 C   0  0  0  0  0  0  0  0  0  0  0  0
   13.0537    9.9821   20.5781 C   0  0  0  0  0  0  0  0  0  0  0  0
   10.3850    4.6575   23.2386 O   0  0  0  0  0  0  0  0  0  0  0  0
    4.2069    6.8450   20.7994 C   0  0  0  0  0  0  0  0  0  0  0  0
    3.0726   10.1043   19.8522 O   0  0  0  0  0  0  0  0  0  0  0  0
    5.5057    7.1196   21.1155 C   0  0  0  0  0  0  0  0  0  0  0  0
    7.0367   11.0229   21.9948 O   0  0  0  0  0  0  0  0  0  0  0  0
  1  8  4  0
  1 12  4  0
  2  9  1  0
  2 11  4  0
  2 25  4  0
  3 12  4  0
  3 14  1  0
  3 23  4  0
  4 13  4  0
  4 21  4  0
  4 24  1  0
  5  8  4  0
  5 23  4  0
  6 18  2  0
  7 15  4  0
  7 16  1  0
  7 27  4  0
  8 18  1  0
 10 18  1  0
 10 20  1  0
 11 15  4  0
 11 26  1  0
 13 22  4  0
 16 19  1  0
 16 20  2  0
 17 19  4  0
 17 21  4  0
 19 22  4  0
 20 28  1  0
 25 27  4  0
M  END
$$$$

 Created by Python create_sdf_string function

 28 30  0  0  0  0  0  0  0  0999 V2000
   11.4592   11.2893   18.7941 C   0  0  0  0  0  0  0  0  0  0  0  0
    3.4202    7.9009   20.3866 C   0  0  0  0  0  0  0  0  0  0  0  0
   13.5280   10.3522   19.3586 C   0  0  0  0  0  0  0  0  0  0  0  0
    9.6923    5.6468   22.7891 C   0  0  0  0  0  0  0  0  0  0  0  0
   11.7756   10.2554   20.8841 N   0  0  0  0  0  0  0  0  0  0  0  0
    8.9876   11.9370   19.8757 O   0  0  0  0  0  0  0  0  0  0  0  0
    6.0167    8.4478   21.1089 C   0  0  0  0  0  0  0  0  0  0  0  0
   11.0002   10.8890   20.0262 C   0  0  0  0  0  0  0  0  0  0  0  0
    2.1721    7.7393   20.0315 O   0  0  0  0  0  0  0  0  0  0  0  0
    9.1107   10.3880   21.3769 N   0  0  0  0  0  0  0  0  0  0  0  0
    3.9102    9.2008   20.3124 C   0  0  0  0  0  0  0  0  0  0  0  0
   12.7292   10.9960   18.4597 C   0  0  0  0  0  0  0  0  0  0  0  0
    9.3798    6.6793   23.6625 C   0  0  0  0  0  0  0  0  0  0  0  0
   14.7425   10.0739   19.0802 O   0  0  0  0  0  0  0  0  0  0  0  0
    5.1894    9.4673   20.7118 C   0  0  0  0  0  0  0  0  0  0  0  0
    7.3773    8.8224   21.4870 C   0  0  0  0  0  0  0  0  0  0  0  0
    8.4391    6.6439   21.0235 C   0  0  0  0  0  0  0  0  0  0  0  0
    9.6494   11.1353   20.4167 C   0  0  0  0  0  0  0  0  0  0  0  0
    8.1431    7.6829   21.9046 C   0  0  0  0  0  0  0  0  0  0  0  0
    7.7796   10.1314   21.5115 N   0  0  0  0  0  0  0  0  0  0  0  0
    9.2768    5.6183   21.4437 C   0  0  0  0  0  0  0  0  0  0  0  0
    8.6315    7.7322   23.1768 C   0  0  0  0  0  0  0  0  0  0  0  0
   13.0537    9.9821   20.5781 C   0  0  0  0  0  0  0  0  0  0  0  0
   10.3850    4.6575   23.2386 O   0  0  0  0  0  0  0  0  0  0  0  0
    4.2069    6.8450   20.7994 C   0  0  0  0  0  0  0  0  0  0  0  0
    3.0726   10.1043   19.8522 O   0  0  0  0  0  0  0  0  0  0  0  0
    5.5057    7.1196   21.1155 C   0  0  0  0  0  0  0  0  0  0  0  0
    7.0367   11.0229   21.9948 O   0  0  0  0  0  0  0  0  0  0  0  0
  1  8  4  0
  1 12  4  0
  2  9  1  0
  2 11  4  0
  2 25  4  0
  3 12  4  0
  3 14  1  0
  3 23  4  0
  4 13  4  0
  4 21  4  0
  4 24  1  0
  5  8  4  0
  5 23  4  0
  6 18  2  0
  7 15  4  0
  7 16  1  0
  7 27  4  0
  8 18  1  0
 10 18  1  0
 10 20  1  0
 11 15  4  0
 11 26  1  0
 13 22  4  0
 16 19  1  0
 16 20  2  0
 17 19  4  0
 17 21  4  0
 19 22  4  0
 20 28  1  0
 25 27  4  0
M  END
$$$$

 Created by Python create_sdf_string function

 28 30  0  0  0  0  0  0  0  0999 V2000
   11.4592   11.2893   18.7941 C   0  0  0  0  0  0  0  0  0  0  0  0
    3.4202    7.9009   20.3866 C   0  0  0  0  0  0  0  0  0  0  0  0
   13.5280   10.3522   19.3586 C   0  0  0  0  0  0  0  0  0  0  0  0
    9.6923    5.6468   22.7891 C   0  0  0  0  0  0  0  0  0  0  0  0
   11.7756   10.2554   20.8841 N   0  0  0  0  0  0  0  0  0  0  0  0
    8.9876   11.9370   19.8757 O   0  0  0  0  0  0  0  0  0  0  0  0
    6.0167    8.4478   21.1089 C   0  0  0  0  0  0  0  0  0  0  0  0
   11.0002   10.8890   20.0262 C   0  0  0  0  0  0  0  0  0  0  0  0
    2.1721    7.7393   20.0315 O   0  0  0  0  0  0  0  0  0  0  0  0
    9.1107   10.3880   21.3769 N   0  0  0  0  0  0  0  0  0  0  0  0
    3.9102    9.2008   20.3124 C   0  0  0  0  0  0  0  0  0  0  0  0
   12.7292   10.9960   18.4597 C   0  0  0  0  0  0  0  0  0  0  0  0
    9.3798    6.6793   23.6625 C   0  0  0  0  0  0  0  0  0  0  0  0
   14.7425   10.0739   19.0802 O   0  0  0  0  0  0  0  0  0  0  0  0
    5.1894    9.4673   20.7118 C   0  0  0  0  0  0  0  0  0  0  0  0
    7.3773    8.8224   21.4870 C   0  0  0  0  0  0  0  0  0  0  0  0
    8.4391    6.6439   21.0235 C   0  0  0  0  0  0  0  0  0  0  0  0
    9.6494   11.1353   20.4167 C   0  0  0  0  0  0  0  0  0  0  0  0
    8.1431    7.6829   21.9046 C   0  0  0  0  0  0  0  0  0  0  0  0
    7.7796   10.1314   21.5115 N   0  0  0  0  0  0  0  0  0  0  0  0
    9.2768    5.6183   21.4437 C   0  0  0  0  0  0  0  0  0  0  0  0
    8.6315    7.7322   23.1768 C   0  0  0  0  0  0  0  0  0  0  0  0
   13.0537    9.9821   20.5781 C   0  0  0  0  0  0  0  0  0  0  0  0
   10.3850    4.6575   23.2386 O   0  0  0  0  0  0  0  0  0  0  0  0
    4.2069    6.8450   20.7994 C   0  0  0  0  0  0  0  0  0  0  0  0
    3.0726   10.1043   19.8522 O   0  0  0  0  0  0  0  0  0  0  0  0
    5.5057    7.1196   21.1155 C   0  0  0  0  0  0  0  0  0  0  0  0
    7.0367   11.0229   21.9948 O   0  0  0  0  0  0  0  0  0  0  0  0
  1  8  4  0
  1 12  4  0
  2  9  1  0
  2 11  4  0
  2 25  4  0
  3 12  4  0
  3 14  1  0
  3 23  4  0
  4 13  4  0
  4 21  4  0
  4 24  1  0
  5  8  4  0
  5 23  4  0
  6 18  2  0
  7 15  4  0
  7 16  1  0
  7 27  4  0
  8 18  1  0
 10 18  1  0
 10 20  1  0
 11 15  4  0
 11 26  1  0
 13 22  4  0
 16 19  1  0
 16 20  2  0
 17 19  4  0
 17 21  4  0
 19 22  4  0
 20 28  1  0
 25 27  4  0
M  END
$$$$

 Created by Python create_sdf_string function

 28 30  0  0  0  0  0  0  0  0999 V2000
   11.4592   11.2893   18.7941 C   0  0  0  0  0  0  0  0  0  0  0  0
    3.4202    7.9009   20.3866 C   0  0  0  0  0  0  0  0  0  0  0  0
   13.5280   10.3522   19.3586 C   0  0  0  0  0  0  0  0  0  0  0  0
    9.6923    5.6468   22.7891 C   0  0  0  0  0  0  0  0  0  0  0  0
   11.7756   10.2554   20.8841 N   0  0  0  0  0  0  0  0  0  0  0  0
    8.9876   11.9370   19.8757 O   0  0  0  0  0  0  0  0  0  0  0  0
    6.0167    8.4478   21.1089 C   0  0  0  0  0  0  0  0  0  0  0  0
   11.0002   10.8890   20.0262 C   0  0  0  0  0  0  0  0  0  0  0  0
    2.1721    7.7393   20.0315 O   0  0  0  0  0  0  0  0  0  0  0  0
    9.1107   10.3880   21.3769 N   0  0  0  0  0  0  0  0  0  0  0  0
    3.9102    9.2008   20.3124 C   0  0  0  0  0  0  0  0  0  0  0  0
   12.7292   10.9960   18.4597 C   0  0  0  0  0  0  0  0  0  0  0  0
    9.3798    6.6793   23.6625 C   0  0  0  0  0  0  0  0  0  0  0  0
   14.7425   10.0739   19.0802 O   0  0  0  0  0  0  0  0  0  0  0  0
    5.1894    9.4673   20.7118 C   0  0  0  0  0  0  0  0  0  0  0  0
    7.3773    8.8224   21.4870 C   0  0  0  0  0  0  0  0  0  0  0  0
    8.4391    6.6439   21.0235 C   0  0  0  0  0  0  0  0  0  0  0  0
    9.6494   11.1353   20.4167 C   0  0  0  0  0  0  0  0  0  0  0  0
    8.1431    7.6829   21.9046 C   0  0  0  0  0  0  0  0  0  0  0  0
    7.7796   10.1314   21.5115 N   0  0  0  0  0  0  0  0  0  0  0  0
    9.2768    5.6183   21.4437 C   0  0  0  0  0  0  0  0  0  0  0  0
    8.6315    7.7322   23.1768 C   0  0  0  0  0  0  0  0  0  0  0  0
   13.0537    9.9821   20.5781 C   0  0  0  0  0  0  0  0  0  0  0  0
   10.3850    4.6575   23.2386 O   0  0  0  0  0  0  0  0  0  0  0  0
    4.2069    6.8450   20.7994 C   0  0  0  0  0  0  0  0  0  0  0  0
    3.0726   10.1043   19.8522 O   0  0  0  0  0  0  0  0  0  0  0  0
    5.5057    7.1196   21.1155 C   0  0  0  0  0  0  0  0  0  0  0  0
    7.0367   11.0229   21.9948 O   0  0  0  0  0  0  0  0  0  0  0  0
  1  8  4  0
  1 12  4  0
  2  9  1  0
  2 11  4  0
  2 25  4  0
  3 12  4  0
  3 14  1  0
  3 23  4  0
  4 13  4  0
  4 21  4  0
  4 24  1  0
  5  8  4  0
  5 23  4  0
  6 18  2  0
  7 15  4  0
  7 16  1  0
  7 27  4  0
  8 18  1  0
 10 18  1  0
 10 20  1  0
 11 15  4  0
 11 26  1  0
 13 22  4  0
 16 19  1  0
 16 20  2  0
 17 19  4  0
 17 21  4  0
 19 22  4  0
 20 28  1  0
 25 27  4  0
M  END
$$$$

 Created by Python create_sdf_string function

 28 30  0  0  0  0  0  0  0  0999 V2000
   11.4592   11.2893   18.7941 C   0  0  0  0  0  0  0  0  0  0  0  0
    3.4202    7.9009   20.3866 C   0  0  0  0  0  0  0  0  0  0  0  0
   13.5280   10.3522   19.3586 C   0  0  0  0  0  0  0  0  0  0  0  0
    9.6923    5.6468   22.7891 C   0  0  0  0  0  0  0  0  0  0  0  0
   11.7756   10.2554   20.8841 N   0  0  0  0  0  0  0  0  0  0  0  0
    8.9876   11.9370   19.8757 O   0  0  0  0  0  0  0  0  0  0  0  0
    6.0167    8.4478   21.1089 C   0  0  0  0  0  0  0  0  0  0  0  0
   11.0002   10.8890   20.0262 C   0  0  0  0  0  0  0  0  0  0  0  0
    2.1721    7.7393   20.0315 O   0  0  0  0  0  0  0  0  0  0  0  0
    9.1107   10.3880   21.3769 N   0  0  0  0  0  0  0  0  0  0  0  0
    3.9102    9.2008   20.3124 C   0  0  0  0  0  0  0  0  0  0  0  0
   12.7292   10.9960   18.4597 C   0  0  0  0  0  0  0  0  0  0  0  0
    9.3798    6.6793   23.6625 C   0  0  0  0  0  0  0  0  0  0  0  0
   14.7425   10.0739   19.0802 O   0  0  0  0  0  0  0  0  0  0  0  0
    5.1894    9.4673   20.7118 C   0  0  0  0  0  0  0  0  0  0  0  0
    7.3773    8.8224   21.4870 C   0  0  0  0  0  0  0  0  0  0  0  0
    8.4391    6.6439   21.0235 C   0  0  0  0  0  0  0  0  0  0  0  0
    9.6494   11.1353   20.4167 C   0  0  0  0  0  0  0  0  0  0  0  0
    8.1431    7.6829   21.9046 C   0  0  0  0  0  0  0  0  0  0  0  0
    7.7796   10.1314   21.5115 N   0  0  0  0  0  0  0  0  0  0  0  0
    9.2768    5.6183   21.4437 C   0  0  0  0  0  0  0  0  0  0  0  0
    8.6315    7.7322   23.1768 C   0  0  0  0  0  0  0  0  0  0  0  0
   13.0537    9.9821   20.5781 C   0  0  0  0  0  0  0  0  0  0  0  0
   10.3850    4.6575   23.2386 O   0  0  0  0  0  0  0  0  0  0  0  0
    4.2069    6.8450   20.7994 C   0  0  0  0  0  0  0  0  0  0  0  0
    3.0726   10.1043   19.8522 O   0  0  0  0  0  0  0  0  0  0  0  0
    5.5057    7.1196   21.1155 C   0  0  0  0  0  0  0  0  0  0  0  0
    7.0367   11.0229   21.9948 O   0  0  0  0  0  0  0  0  0  0  0  0
  1  8  4  0
  1 12  4  0
  2  9  1  0
  2 11  4  0
  2 25  4  0
  3 12  4  0
  3 14  1  0
  3 23  4  0
  4 13  4  0
  4 21  4  0
  4 24  1  0
  5  8  4  0
  5 23  4  0
  6 18  2  0
  7 15  4  0
  7 16  1  0
  7 27  4  0
  8 18  1  0
 10 18  1  0
 10 20  1  0
 11 15  4  0
 11 26  1  0
 13 22  4  0
 16 19  1  0
 16 20  2  0
 17 19  4  0
 17 21  4  0
 19 22  4  0
 20 28  1  0
 25 27  4  0
M  END
$$$$

 Created by Python create_sdf_string function

 28 30  0  0  0  0  0  0  0  0999 V2000
   11.4592   11.2893   18.7941 C   0  0  0  0  0  0  0  0  0  0  0  0
    3.4202    7.9009   20.3866 C   0  0  0  0  0  0  0  0  0  0  0  0
   13.5280   10.3522   19.3586 C   0  0  0  0  0  0  0  0  0  0  0  0
    9.6923    5.6468   22.7891 C   0  0  0  0  0  0  0  0  0  0  0  0
   11.7756   10.2554   20.8841 N   0  0  0  0  0  0  0  0  0  0  0  0
    8.9876   11.9370   19.8757 O   0  0  0  0  0  0  0  0  0  0  0  0
    6.0167    8.4478   21.1089 C   0  0  0  0  0  0  0  0  0  0  0  0
   11.0002   10.8890   20.0262 C   0  0  0  0  0  0  0  0  0  0  0  0
    2.1721    7.7393   20.0315 O   0  0  0  0  0  0  0  0  0  0  0  0
    9.1107   10.3880   21.3769 N   0  0  0  0  0  0  0  0  0  0  0  0
    3.9102    9.2008   20.3124 C   0  0  0  0  0  0  0  0  0  0  0  0
   12.7292   10.9960   18.4597 C   0  0  0  0  0  0  0  0  0  0  0  0
    9.3798    6.6793   23.6625 C   0  0  0  0  0  0  0  0  0  0  0  0
   14.7425   10.0739   19.0802 O   0  0  0  0  0  0  0  0  0  0  0  0
    5.1894    9.4673   20.7118 C   0  0  0  0  0  0  0  0  0  0  0  0
    7.3773    8.8224   21.4870 C   0  0  0  0  0  0  0  0  0  0  0  0
    8.4391    6.6439   21.0235 C   0  0  0  0  0  0  0  0  0  0  0  0
    9.6494   11.1353   20.4167 C   0  0  0  0  0  0  0  0  0  0  0  0
    8.1431    7.6829   21.9046 C   0  0  0  0  0  0  0  0  0  0  0  0
    7.7796   10.1314   21.5115 N   0  0  0  0  0  0  0  0  0  0  0  0
    9.2768    5.6183   21.4437 C   0  0  0  0  0  0  0  0  0  0  0  0
    8.6315    7.7322   23.1768 C   0  0  0  0  0  0  0  0  0  0  0  0
   13.0537    9.9821   20.5781 C   0  0  0  0  0  0  0  0  0  0  0  0
   10.3850    4.6575   23.2386 O   0  0  0  0  0  0  0  0  0  0  0  0
    4.2069    6.8450   20.7994 C   0  0  0  0  0  0  0  0  0  0  0  0
    3.0726   10.1043   19.8522 O   0  0  0  0  0  0  0  0  0  0  0  0
    5.5057    7.1196   21.1155 C   0  0  0  0  0  0  0  0  0  0  0  0
    7.0367   11.0229   21.9948 O   0  0  0  0  0  0  0  0  0  0  0  0
  1  8  4  0
  1 12  4  0
  2  9  1  0
  2 11  4  0
  2 25  4  0
  3 12  4  0
  3 14  1  0
  3 23  4  0
  4 13  4  0
  4 21  4  0
  4 24  1  0
  5  8  4  0
  5 23  4  0
  6 18  2  0
  7 15  4  0
  7 16  1  0
  7 27  4  0
  8 18  1  0
 10 18  1  0
 10 20  1  0
 11 15  4  0
 11 26  1  0
 13 22  4  0
 16 19  1  0
 16 20  2  0
 17 19  4  0
 17 21  4  0
 19 22  4  0
 20 28  1  0
 25 27  4  0
M  END
$$$$

 Created by Python create_sdf_string function

 28 30  0  0  0  0  0  0  0  0999 V2000
   11.4592   11.2893   18.7941 C   0  0  0  0  0  0  0  0  0  0  0  0
    3.4202    7.9009   20.3866 C   0  0  0  0  0  0  0  0  0  0  0  0
   13.5280   10.3522   19.3586 C   0  0  0  0  0  0  0  0  0  0  0  0
    9.6923    5.6468   22.7891 C   0  0  0  0  0  0  0  0  0  0  0  0
   11.7756   10.2554   20.8841 N   0  0  0  0  0  0  0  0  0  0  0  0
    8.9876   11.9370   19.8757 O   0  0  0  0  0  0  0  0  0  0  0  0
    6.0167    8.4478   21.1089 C   0  0  0  0  0  0  0  0  0  0  0  0
   11.0002   10.8890   20.0262 C   0  0  0  0  0  0  0  0  0  0  0  0
    2.1721    7.7393   20.0315 O   0  0  0  0  0  0  0  0  0  0  0  0
    9.1107   10.3880   21.3769 N   0  0  0  0  0  0  0  0  0  0  0  0
    3.9102    9.2008   20.3124 C   0  0  0  0  0  0  0  0  0  0  0  0
   12.7292   10.9960   18.4597 C   0  0  0  0  0  0  0  0  0  0  0  0
    9.3798    6.6793   23.6625 C   0  0  0  0  0  0  0  0  0  0  0  0
   14.7425   10.0739   19.0802 O   0  0  0  0  0  0  0  0  0  0  0  0
    5.1894    9.4673   20.7118 C   0  0  0  0  0  0  0  0  0  0  0  0
    7.3773    8.8224   21.4870 C   0  0  0  0  0  0  0  0  0  0  0  0
    8.4391    6.6439   21.0235 C   0  0  0  0  0  0  0  0  0  0  0  0
    9.6494   11.1353   20.4167 C   0  0  0  0  0  0  0  0  0  0  0  0
    8.1431    7.6829   21.9046 C   0  0  0  0  0  0  0  0  0  0  0  0
    7.7796   10.1314   21.5115 N   0  0  0  0  0  0  0  0  0  0  0  0
    9.2768    5.6183   21.4437 C   0  0  0  0  0  0  0  0  0  0  0  0
    8.6315    7.7322   23.1768 C   0  0  0  0  0  0  0  0  0  0  0  0
   13.0537    9.9821   20.5781 C   0  0  0  0  0  0  0  0  0  0  0  0
   10.3850    4.6575   23.2386 O   0  0  0  0  0  0  0  0  0  0  0  0
    4.2069    6.8450   20.7994 C   0  0  0  0  0  0  0  0  0  0  0  0
    3.0726   10.1043   19.8522 O   0  0  0  0  0  0  0  0  0  0  0  0
    5.5057    7.1196   21.1155 C   0  0  0  0  0  0  0  0  0  0  0  0
    7.0367   11.0229   21.9948 O   0  0  0  0  0  0  0  0  0  0  0  0
  1  8  4  0
  1 12  4  0
  2  9  1  0
  2 11  4  0
  2 25  4  0
  3 12  4  0
  3 14  1  0
  3 23  4  0
  4 13  4  0
  4 21  4  0
  4 24  1  0
  5  8  4  0
  5 23  4  0
  6 18  2  0
  7 15  4  0
  7 16  1  0
  7 27  4  0
  8 18  1  0
 10 18  1  0
 10 20  1  0
 11 15  4  0
 11 26  1  0
 13 22  4  0
 16 19  1  0
 16 20  2  0
 17 19  4  0
 17 21  4  0
 19 22  4  0
 20 28  1  0
 25 27  4  0
M  END
$$$$

 Created by Python create_sdf_string function

 28 30  0  0  0  0  0  0  0  0999 V2000
   11.4592   11.2893   18.7941 C   0  0  0  0  0  0  0  0  0  0  0  0
    3.4202    7.9009   20.3866 C   0  0  0  0  0  0  0  0  0  0  0  0
   13.5280   10.3522   19.3586 C   0  0  0  0  0  0  0  0  0  0  0  0
    9.6923    5.6468   22.7891 C   0  0  0  0  0  0  0  0  0  0  0  0
   11.7756   10.2554   20.8841 N   0  0  0  0  0  0  0  0  0  0  0  0
    8.9876   11.9370   19.8757 O   0  0  0  0  0  0  0  0  0  0  0  0
    6.0167    8.4478   21.1089 C   0  0  0  0  0  0  0  0  0  0  0  0
   11.0002   10.8890   20.0262 C   0  0  0  0  0  0  0  0  0  0  0  0
    2.1721    7.7393   20.0315 O   0  0  0  0  0  0  0  0  0  0  0  0
    9.1107   10.3880   21.3769 N   0  0  0  0  0  0  0  0  0  0  0  0
    3.9102    9.2008   20.3124 C   0  0  0  0  0  0  0  0  0  0  0  0
   12.7292   10.9960   18.4597 C   0  0  0  0  0  0  0  0  0  0  0  0
    9.3798    6.6793   23.6625 C   0  0  0  0  0  0  0  0  0  0  0  0
   14.7425   10.0739   19.0802 O   0  0  0  0  0  0  0  0  0  0  0  0
    5.1894    9.4673   20.7118 C   0  0  0  0  0  0  0  0  0  0  0  0
    7.3773    8.8224   21.4870 C   0  0  0  0  0  0  0  0  0  0  0  0
    8.4391    6.6439   21.0235 C   0  0  0  0  0  0  0  0  0  0  0  0
    9.6494   11.1353   20.4167 C   0  0  0  0  0  0  0  0  0  0  0  0
    8.1431    7.6829   21.9046 C   0  0  0  0  0  0  0  0  0  0  0  0
    7.7796   10.1314   21.5115 N   0  0  0  0  0  0  0  0  0  0  0  0
    9.2768    5.6183   21.4437 C   0  0  0  0  0  0  0  0  0  0  0  0
    8.6315    7.7322   23.1768 C   0  0  0  0  0  0  0  0  0  0  0  0
   13.0537    9.9821   20.5781 C   0  0  0  0  0  0  0  0  0  0  0  0
   10.3850    4.6575   23.2386 O   0  0  0  0  0  0  0  0  0  0  0  0
    4.2069    6.8450   20.7994 C   0  0  0  0  0  0  0  0  0  0  0  0
    3.0726   10.1043   19.8522 O   0  0  0  0  0  0  0  0  0  0  0  0
    5.5057    7.1196   21.1155 C   0  0  0  0  0  0  0  0  0  0  0  0
    7.0367   11.0229   21.9948 O   0  0  0  0  0  0  0  0  0  0  0  0
  1  8  4  0
  1 12  4  0
  2  9  1  0
  2 11  4  0
  2 25  4  0
  3 12  4  0
  3 14  1  0
  3 23  4  0
  4 13  4  0
  4 21  4  0
  4 24  1  0
  5  8  4  0
  5 23  4  0
  6 18  2  0
  7 15  4  0
  7 16  1  0
  7 27  4  0
  8 18  1  0
 10 18  1  0
 10 20  1  0
 11 15  4  0
 11 26  1  0
 13 22  4  0
 16 19  1  0
 16 20  2  0
 17 19  4  0
 17 21  4  0
 19 22  4  0
 20 28  1  0
 25 27  4  0
M  END
$$$$

 Created by Python create_sdf_string function

 28 30  0  0  0  0  0  0  0  0999 V2000
   11.4592   11.2893   18.7941 C   0  0  0  0  0  0  0  0  0  0  0  0
    3.4202    7.9009   20.3866 C   0  0  0  0  0  0  0  0  0  0  0  0
   13.5280   10.3522   19.3586 C   0  0  0  0  0  0  0  0  0  0  0  0
    9.6923    5.6468   22.7891 C   0  0  0  0  0  0  0  0  0  0  0  0
   11.7756   10.2554   20.8841 N   0  0  0  0  0  0  0  0  0  0  0  0
    8.9876   11.9370   19.8757 O   0  0  0  0  0  0  0  0  0  0  0  0
    6.0167    8.4478   21.1089 C   0  0  0  0  0  0  0  0  0  0  0  0
   11.0002   10.8890   20.0262 C   0  0  0  0  0  0  0  0  0  0  0  0
    2.1721    7.7393   20.0315 O   0  0  0  0  0  0  0  0  0  0  0  0
    9.1107   10.3880   21.3769 N   0  0  0  0  0  0  0  0  0  0  0  0
    3.9102    9.2008   20.3124 C   0  0  0  0  0  0  0  0  0  0  0  0
   12.7292   10.9960   18.4597 C   0  0  0  0  0  0  0  0  0  0  0  0
    9.3798    6.6793   23.6625 C   0  0  0  0  0  0  0  0  0  0  0  0
   14.7425   10.0739   19.0802 O   0  0  0  0  0  0  0  0  0  0  0  0
    5.1894    9.4673   20.7118 C   0  0  0  0  0  0  0  0  0  0  0  0
    7.3773    8.8224   21.4870 C   0  0  0  0  0  0  0  0  0  0  0  0
    8.4391    6.6439   21.0235 C   0  0  0  0  0  0  0  0  0  0  0  0
    9.6494   11.1353   20.4167 C   0  0  0  0  0  0  0  0  0  0  0  0
    8.1431    7.6829   21.9046 C   0  0  0  0  0  0  0  0  0  0  0  0
    7.7796   10.1314   21.5115 N   0  0  0  0  0  0  0  0  0  0  0  0
    9.2768    5.6183   21.4437 C   0  0  0  0  0  0  0  0  0  0  0  0
    8.6315    7.7322   23.1768 C   0  0  0  0  0  0  0  0  0  0  0  0
   13.0537    9.9821   20.5781 C   0  0  0  0  0  0  0  0  0  0  0  0
   10.3850    4.6575   23.2386 O   0  0  0  0  0  0  0  0  0  0  0  0
    4.2069    6.8450   20.7994 C   0  0  0  0  0  0  0  0  0  0  0  0
    3.0726   10.1043   19.8522 O   0  0  0  0  0  0  0  0  0  0  0  0
    5.5057    7.1196   21.1155 C   0  0  0  0  0  0  0  0  0  0  0  0
    7.0367   11.0229   21.9948 O   0  0  0  0  0  0  0  0  0  0  0  0
  1  8  4  0
  1 12  4  0
  2  9  1  0
  2 11  4  0
  2 25  4  0
  3 12  4  0
  3 14  1  0
  3 23  4  0
  4 13  4  0
  4 21  4  0
  4 24  1  0
  5  8  4  0
  5 23  4  0
  6 18  2  0
  7 15  4  0
  7 16  1  0
  7 27  4  0
  8 18  1  0
 10 18  1  0
 10 20  1  0
 11 15  4  0
 11 26  1  0
 13 22  4  0
 16 19  1  0
 16 20  2  0
 17 19  4  0
 17 21  4  0
 19 22  4  0
 20 28  1  0
 25 27  4  0
M  END
$$$$

 Created by Python create_sdf_string function

 28 30  0  0  0  0  0  0  0  0999 V2000
   11.4592   11.2893   18.7941 C   0  0  0  0  0  0  0  0  0  0  0  0
    3.4202    7.9009   20.3866 C   0  0  0  0  0  0  0  0  0  0  0  0
   13.5280   10.3522   19.3586 C   0  0  0  0  0  0  0  0  0  0  0  0
    9.6923    5.6468   22.7891 C   0  0  0  0  0  0  0  0  0  0  0  0
   11.7756   10.2554   20.8841 N   0  0  0  0  0  0  0  0  0  0  0  0
    8.9876   11.9370   19.8757 O   0  0  0  0  0  0  0  0  0  0  0  0
    6.0167    8.4478   21.1089 C   0  0  0  0  0  0  0  0  0  0  0  0
   11.0002   10.8890   20.0262 C   0  0  0  0  0  0  0  0  0  0  0  0
    2.1721    7.7393   20.0315 O   0  0  0  0  0  0  0  0  0  0  0  0
    9.1107   10.3880   21.3769 N   0  0  0  0  0  0  0  0  0  0  0  0
    3.9102    9.2008   20.3124 C   0  0  0  0  0  0  0  0  0  0  0  0
   12.7292   10.9960   18.4597 C   0  0  0  0  0  0  0  0  0  0  0  0
    9.3798    6.6793   23.6625 C   0  0  0  0  0  0  0  0  0  0  0  0
   14.7425   10.0739   19.0802 O   0  0  0  0  0  0  0  0  0  0  0  0
    5.1894    9.4673   20.7118 C   0  0  0  0  0  0  0  0  0  0  0  0
    7.3773    8.8224   21.4870 C   0  0  0  0  0  0  0  0  0  0  0  0
    8.4391    6.6439   21.0235 C   0  0  0  0  0  0  0  0  0  0  0  0
    9.6494   11.1353   20.4167 C   0  0  0  0  0  0  0  0  0  0  0  0
    8.1431    7.6829   21.9046 C   0  0  0  0  0  0  0  0  0  0  0  0
    7.7796   10.1314   21.5115 N   0  0  0  0  0  0  0  0  0  0  0  0
    9.2768    5.6183   21.4437 C   0  0  0  0  0  0  0  0  0  0  0  0
    8.6315    7.7322   23.1768 C   0  0  0  0  0  0  0  0  0  0  0  0
   13.0537    9.9821   20.5781 C   0  0  0  0  0  0  0  0  0  0  0  0
   10.3850    4.6575   23.2386 O   0  0  0  0  0  0  0  0  0  0  0  0
    4.2069    6.8450   20.7994 C   0  0  0  0  0  0  0  0  0  0  0  0
    3.0726   10.1043   19.8522 O   0  0  0  0  0  0  0  0  0  0  0  0
    5.5057    7.1196   21.1155 C   0  0  0  0  0  0  0  0  0  0  0  0
    7.0367   11.0229   21.9948 O   0  0  0  0  0  0  0  0  0  0  0  0
  1  8  4  0
  1 12  4  0
  2  9  1  0
  2 11  4  0
  2 25  4  0
  3 12  4  0
  3 14  1  0
  3 23  4  0
  4 13  4  0
  4 21  4  0
  4 24  1  0
  5  8  4  0
  5 23  4  0
  6 18  2  0
  7 15  4  0
  7 16  1  0
  7 27  4  0
  8 18  1  0
 10 18  1  0
 10 20  1  0
 11 15  4  0
 11 26  1  0
 13 22  4  0
 16 19  1  0
 16 20  2  0
 17 19  4  0
 17 21  4  0
 19 22  4  0
 20 28  1  0
 25 27  4  0
M  END
$$$$

 Created by Python create_sdf_string function

 28 30  0  0  0  0  0  0  0  0999 V2000
   11.4592   11.2893   18.7941 C   0  0  0  0  0  0  0  0  0  0  0  0
    3.4202    7.9009   20.3866 C   0  0  0  0  0  0  0  0  0  0  0  0
   13.5280   10.3522   19.3586 C   0  0  0  0  0  0  0  0  0  0  0  0
    9.6923    5.6468   22.7891 C   0  0  0  0  0  0  0  0  0  0  0  0
   11.7756   10.2554   20.8841 N   0  0  0  0  0  0  0  0  0  0  0  0
    8.9876   11.9370   19.8757 O   0  0  0  0  0  0  0  0  0  0  0  0
    6.0167    8.4478   21.1089 C   0  0  0  0  0  0  0  0  0  0  0  0
   11.0002   10.8890   20.0262 C   0  0  0  0  0  0  0  0  0  0  0  0
    2.1721    7.7393   20.0315 O   0  0  0  0  0  0  0  0  0  0  0  0
    9.1107   10.3880   21.3769 N   0  0  0  0  0  0  0  0  0  0  0  0
    3.9102    9.2008   20.3124 C   0  0  0  0  0  0  0  0  0  0  0  0
   12.7292   10.9960   18.4597 C   0  0  0  0  0  0  0  0  0  0  0  0
    9.3798    6.6793   23.6625 C   0  0  0  0  0  0  0  0  0  0  0  0
   14.7425   10.0739   19.0802 O   0  0  0  0  0  0  0  0  0  0  0  0
    5.1894    9.4673   20.7118 C   0  0  0  0  0  0  0  0  0  0  0  0
    7.3773    8.8224   21.4870 C   0  0  0  0  0  0  0  0  0  0  0  0
    8.4391    6.6439   21.0235 C   0  0  0  0  0  0  0  0  0  0  0  0
    9.6494   11.1353   20.4167 C   0  0  0  0  0  0  0  0  0  0  0  0
    8.1431    7.6829   21.9046 C   0  0  0  0  0  0  0  0  0  0  0  0
    7.7796   10.1314   21.5115 N   0  0  0  0  0  0  0  0  0  0  0  0
    9.2768    5.6183   21.4437 C   0  0  0  0  0  0  0  0  0  0  0  0
    8.6315    7.7322   23.1768 C   0  0  0  0  0  0  0  0  0  0  0  0
   13.0537    9.9821   20.5781 C   0  0  0  0  0  0  0  0  0  0  0  0
   10.3850    4.6575   23.2386 O   0  0  0  0  0  0  0  0  0  0  0  0
    4.2069    6.8450   20.7994 C   0  0  0  0  0  0  0  0  0  0  0  0
    3.0726   10.1043   19.8522 O   0  0  0  0  0  0  0  0  0  0  0  0
    5.5057    7.1196   21.1155 C   0  0  0  0  0  0  0  0  0  0  0  0
    7.0367   11.0229   21.9948 O   0  0  0  0  0  0  0  0  0  0  0  0
  1  8  4  0
  1 12  4  0
  2  9  1  0
  2 11  4  0
  2 25  4  0
  3 12  4  0
  3 14  1  0
  3 23  4  0
  4 13  4  0
  4 21  4  0
  4 24  1  0
  5  8  4  0
  5 23  4  0
  6 18  2  0
  7 15  4  0
  7 16  1  0
  7 27  4  0
  8 18  1  0
 10 18  1  0
 10 20  1  0
 11 15  4  0
 11 26  1  0
 13 22  4  0
 16 19  1  0
 16 20  2  0
 17 19  4  0
 17 21  4  0
 19 22  4  0
 20 28  1  0
 25 27  4  0
M  END
$$$$

 Created by Python create_sdf_string function

 28 30  0  0  0  0  0  0  0  0999 V2000
   11.4592   11.2893   18.7941 C   0  0  0  0  0  0  0  0  0  0  0  0
    3.4202    7.9009   20.3866 C   0  0  0  0  0  0  0  0  0  0  0  0
   13.5280   10.3522   19.3586 C   0  0  0  0  0  0  0  0  0  0  0  0
    9.6923    5.6468   22.7891 C   0  0  0  0  0  0  0  0  0  0  0  0
   11.7756   10.2554   20.8841 N   0  0  0  0  0  0  0  0  0  0  0  0
    8.9876   11.9370   19.8757 O   0  0  0  0  0  0  0  0  0  0  0  0
    6.0167    8.4478   21.1089 C   0  0  0  0  0  0  0  0  0  0  0  0
   11.0002   10.8890   20.0262 C   0  0  0  0  0  0  0  0  0  0  0  0
    2.1721    7.7393   20.0315 O   0  0  0  0  0  0  0  0  0  0  0  0
    9.1107   10.3880   21.3769 N   0  0  0  0  0  0  0  0  0  0  0  0
    3.9102    9.2008   20.3124 C   0  0  0  0  0  0  0  0  0  0  0  0
   12.7292   10.9960   18.4597 C   0  0  0  0  0  0  0  0  0  0  0  0
    9.3798    6.6793   23.6625 C   0  0  0  0  0  0  0  0  0  0  0  0
   14.7425   10.0739   19.0802 O   0  0  0  0  0  0  0  0  0  0  0  0
    5.1894    9.4673   20.7118 C   0  0  0  0  0  0  0  0  0  0  0  0
    7.3773    8.8224   21.4870 C   0  0  0  0  0  0  0  0  0  0  0  0
    8.4391    6.6439   21.0235 C   0  0  0  0  0  0  0  0  0  0  0  0
    9.6494   11.1353   20.4167 C   0  0  0  0  0  0  0  0  0  0  0  0
    8.1431    7.6829   21.9046 C   0  0  0  0  0  0  0  0  0  0  0  0
    7.7796   10.1314   21.5115 N   0  0  0  0  0  0  0  0  0  0  0  0
    9.2768    5.6183   21.4437 C   0  0  0  0  0  0  0  0  0  0  0  0
    8.6315    7.7322   23.1768 C   0  0  0  0  0  0  0  0  0  0  0  0
   13.0537    9.9821   20.5781 C   0  0  0  0  0  0  0  0  0  0  0  0
   10.3850    4.6575   23.2386 O   0  0  0  0  0  0  0  0  0  0  0  0
    4.2069    6.8450   20.7994 C   0  0  0  0  0  0  0  0  0  0  0  0
    3.0726   10.1043   19.8522 O   0  0  0  0  0  0  0  0  0  0  0  0
    5.5057    7.1196   21.1155 C   0  0  0  0  0  0  0  0  0  0  0  0
    7.0367   11.0229   21.9948 O   0  0  0  0  0  0  0  0  0  0  0  0
  1  8  4  0
  1 12  4  0
  2  9  1  0
  2 11  4  0
  2 25  4  0
  3 12  4  0
  3 14  1  0
  3 23  4  0
  4 13  4  0
  4 21  4  0
  4 24  1  0
  5  8  4  0
  5 23  4  0
  6 18  2  0
  7 15  4  0
  7 16  1  0
  7 27  4  0
  8 18  1  0
 10 18  1  0
 10 20  1  0
 11 15  4  0
 11 26  1  0
 13 22  4  0
 16 19  1  0
 16 20  2  0
 17 19  4  0
 17 21  4  0
 19 22  4  0
 20 28  1  0
 25 27  4  0
M  END
$$$$

 Created by Python create_sdf_string function

 28 30  0  0  0  0  0  0  0  0999 V2000
   11.4592   11.2893   18.7941 C   0  0  0  0  0  0  0  0  0  0  0  0
    3.4202    7.9009   20.3866 C   0  0  0  0  0  0  0  0  0  0  0  0
   13.5280   10.3522   19.3586 C   0  0  0  0  0  0  0  0  0  0  0  0
    9.6923    5.6468   22.7891 C   0  0  0  0  0  0  0  0  0  0  0  0
   11.7756   10.2554   20.8841 N   0  0  0  0  0  0  0  0  0  0  0  0
    8.9876   11.9370   19.8757 O   0  0  0  0  0  0  0  0  0  0  0  0
    6.0167    8.4478   21.1089 C   0  0  0  0  0  0  0  0  0  0  0  0
   11.0002   10.8890   20.0262 C   0  0  0  0  0  0  0  0  0  0  0  0
    2.1721    7.7393   20.0315 O   0  0  0  0  0  0  0  0  0  0  0  0
    9.1107   10.3880   21.3769 N   0  0  0  0  0  0  0  0  0  0  0  0
    3.9102    9.2008   20.3124 C   0  0  0  0  0  0  0  0  0  0  0  0
   12.7292   10.9960   18.4597 C   0  0  0  0  0  0  0  0  0  0  0  0
    9.3798    6.6793   23.6625 C   0  0  0  0  0  0  0  0  0  0  0  0
   14.7425   10.0739   19.0802 O   0  0  0  0  0  0  0  0  0  0  0  0
    5.1894    9.4673   20.7118 C   0  0  0  0  0  0  0  0  0  0  0  0
    7.3773    8.8224   21.4870 C   0  0  0  0  0  0  0  0  0  0  0  0
    8.4391    6.6439   21.0235 C   0  0  0  0  0  0  0  0  0  0  0  0
    9.6494   11.1353   20.4167 C   0  0  0  0  0  0  0  0  0  0  0  0
    8.1431    7.6829   21.9046 C   0  0  0  0  0  0  0  0  0  0  0  0
    7.7796   10.1314   21.5115 N   0  0  0  0  0  0  0  0  0  0  0  0
    9.2768    5.6183   21.4437 C   0  0  0  0  0  0  0  0  0  0  0  0
    8.6315    7.7322   23.1768 C   0  0  0  0  0  0  0  0  0  0  0  0
   13.0537    9.9821   20.5781 C   0  0  0  0  0  0  0  0  0  0  0  0
   10.3850    4.6575   23.2386 O   0  0  0  0  0  0  0  0  0  0  0  0
    4.2069    6.8450   20.7994 C   0  0  0  0  0  0  0  0  0  0  0  0
    3.0726   10.1043   19.8522 O   0  0  0  0  0  0  0  0  0  0  0  0
    5.5057    7.1196   21.1155 C   0  0  0  0  0  0  0  0  0  0  0  0
    7.0367   11.0229   21.9948 O   0  0  0  0  0  0  0  0  0  0  0  0
  1  8  4  0
  1 12  4  0
  2  9  1  0
  2 11  4  0
  2 25  4  0
  3 12  4  0
  3 14  1  0
  3 23  4  0
  4 13  4  0
  4 21  4  0
  4 24  1  0
  5  8  4  0
  5 23  4  0
  6 18  2  0
  7 15  4  0
  7 16  1  0
  7 27  4  0
  8 18  1  0
 10 18  1  0
 10 20  1  0
 11 15  4  0
 11 26  1  0
 13 22  4  0
 16 19  1  0
 16 20  2  0
 17 19  4  0
 17 21  4  0
 19 22  4  0
 20 28  1  0
 25 27  4  0
M  END
$$$$

 Created by Python create_sdf_string function

 28 30  0  0  0  0  0  0  0  0999 V2000
   11.4592   11.2893   18.7941 C   0  0  0  0  0  0  0  0  0  0  0  0
    3.4202    7.9009   20.3866 C   0  0  0  0  0  0  0  0  0  0  0  0
   13.5280   10.3522   19.3586 C   0  0  0  0  0  0  0  0  0  0  0  0
    9.6923    5.6468   22.7891 C   0  0  0  0  0  0  0  0  0  0  0  0
   11.7756   10.2554   20.8841 N   0  0  0  0  0  0  0  0  0  0  0  0
    8.9876   11.9370   19.8757 O   0  0  0  0  0  0  0  0  0  0  0  0
    6.0167    8.4478   21.1089 C   0  0  0  0  0  0  0  0  0  0  0  0
   11.0002   10.8890   20.0262 C   0  0  0  0  0  0  0  0  0  0  0  0
    2.1721    7.7393   20.0315 O   0  0  0  0  0  0  0  0  0  0  0  0
    9.1107   10.3880   21.3769 N   0  0  0  0  0  0  0  0  0  0  0  0
    3.9102    9.2008   20.3124 C   0  0  0  0  0  0  0  0  0  0  0  0
   12.7292   10.9960   18.4597 C   0  0  0  0  0  0  0  0  0  0  0  0
    9.3798    6.6793   23.6625 C   0  0  0  0  0  0  0  0  0  0  0  0
   14.7425   10.0739   19.0802 O   0  0  0  0  0  0  0  0  0  0  0  0
    5.1894    9.4673   20.7118 C   0  0  0  0  0  0  0  0  0  0  0  0
    7.3773    8.8224   21.4870 C   0  0  0  0  0  0  0  0  0  0  0  0
    8.4391    6.6439   21.0235 C   0  0  0  0  0  0  0  0  0  0  0  0
    9.6494   11.1353   20.4167 C   0  0  0  0  0  0  0  0  0  0  0  0
    8.1431    7.6829   21.9046 C   0  0  0  0  0  0  0  0  0  0  0  0
    7.7796   10.1314   21.5115 N   0  0  0  0  0  0  0  0  0  0  0  0
    9.2768    5.6183   21.4437 C   0  0  0  0  0  0  0  0  0  0  0  0
    8.6315    7.7322   23.1768 C   0  0  0  0  0  0  0  0  0  0  0  0
   13.0537    9.9821   20.5781 C   0  0  0  0  0  0  0  0  0  0  0  0
   10.3850    4.6575   23.2386 O   0  0  0  0  0  0  0  0  0  0  0  0
    4.2069    6.8450   20.7994 C   0  0  0  0  0  0  0  0  0  0  0  0
    3.0726   10.1043   19.8522 O   0  0  0  0  0  0  0  0  0  0  0  0
    5.5057    7.1196   21.1155 C   0  0  0  0  0  0  0  0  0  0  0  0
    7.0367   11.0229   21.9948 O   0  0  0  0  0  0  0  0  0  0  0  0
  1  8  4  0
  1 12  4  0
  2  9  1  0
  2 11  4  0
  2 25  4  0
  3 12  4  0
  3 14  1  0
  3 23  4  0
  4 13  4  0
  4 21  4  0
  4 24  1  0
  5  8  4  0
  5 23  4  0
  6 18  2  0
  7 15  4  0
  7 16  1  0
  7 27  4  0
  8 18  1  0
 10 18  1  0
 10 20  1  0
 11 15  4  0
 11 26  1  0
 13 22  4  0
 16 19  1  0
 16 20  2  0
 17 19  4  0
 17 21  4  0
 19 22  4  0
 20 28  1  0
 25 27  4  0
M  END
$$$$

 Created by Python create_sdf_string function

 28 30  0  0  0  0  0  0  0  0999 V2000
   11.4592   11.2893   18.7941 C   0  0  0  0  0  0  0  0  0  0  0  0
    3.4202    7.9009   20.3866 C   0  0  0  0  0  0  0  0  0  0  0  0
   13.5280   10.3522   19.3586 C   0  0  0  0  0  0  0  0  0  0  0  0
    9.6923    5.6468   22.7891 C   0  0  0  0  0  0  0  0  0  0  0  0
   11.7756   10.2554   20.8841 N   0  0  0  0  0  0  0  0  0  0  0  0
    8.9876   11.9370   19.8757 O   0  0  0  0  0  0  0  0  0  0  0  0
    6.0167    8.4478   21.1089 C   0  0  0  0  0  0  0  0  0  0  0  0
   11.0002   10.8890   20.0262 C   0  0  0  0  0  0  0  0  0  0  0  0
    2.1721    7.7393   20.0315 O   0  0  0  0  0  0  0  0  0  0  0  0
    9.1107   10.3880   21.3769 N   0  0  0  0  0  0  0  0  0  0  0  0
    3.9102    9.2008   20.3124 C   0  0  0  0  0  0  0  0  0  0  0  0
   12.7292   10.9960   18.4597 C   0  0  0  0  0  0  0  0  0  0  0  0
    9.3798    6.6793   23.6625 C   0  0  0  0  0  0  0  0  0  0  0  0
   14.7425   10.0739   19.0802 O   0  0  0  0  0  0  0  0  0  0  0  0
    5.1894    9.4673   20.7118 C   0  0  0  0  0  0  0  0  0  0  0  0
    7.3773    8.8224   21.4870 C   0  0  0  0  0  0  0  0  0  0  0  0
    8.4391    6.6439   21.0235 C   0  0  0  0  0  0  0  0  0  0  0  0
    9.6494   11.1353   20.4167 C   0  0  0  0  0  0  0  0  0  0  0  0
    8.1431    7.6829   21.9046 C   0  0  0  0  0  0  0  0  0  0  0  0
    7.7796   10.1314   21.5115 N   0  0  0  0  0  0  0  0  0  0  0  0
    9.2768    5.6183   21.4437 C   0  0  0  0  0  0  0  0  0  0  0  0
    8.6315    7.7322   23.1768 C   0  0  0  0  0  0  0  0  0  0  0  0
   13.0537    9.9821   20.5781 C   0  0  0  0  0  0  0  0  0  0  0  0
   10.3850    4.6575   23.2386 O   0  0  0  0  0  0  0  0  0  0  0  0
    4.2069    6.8450   20.7994 C   0  0  0  0  0  0  0  0  0  0  0  0
    3.0726   10.1043   19.8522 O   0  0  0  0  0  0  0  0  0  0  0  0
    5.5057    7.1196   21.1155 C   0  0  0  0  0  0  0  0  0  0  0  0
    7.0367   11.0229   21.9948 O   0  0  0  0  0  0  0  0  0  0  0  0
  1  8  4  0
  1 12  4  0
  2  9  1  0
  2 11  4  0
  2 25  4  0
  3 12  4  0
  3 14  1  0
  3 23  4  0
  4 13  4  0
  4 21  4  0
  4 24  1  0
  5  8  4  0
  5 23  4  0
  6 18  2  0
  7 15  4  0
  7 16  1  0
  7 27  4  0
  8 18  1  0
 10 18  1  0
 10 20  1  0
 11 15  4  0
 11 26  1  0
 13 22  4  0
 16 19  1  0
 16 20  2  0
 17 19  4  0
 17 21  4  0
 19 22  4  0
 20 28  1  0
 25 27  4  0
M  END
$$$$

 Created by Python create_sdf_string function

 28 30  0  0  0  0  0  0  0  0999 V2000
   11.4592   11.2893   18.7941 C   0  0  0  0  0  0  0  0  0  0  0  0
    3.4202    7.9009   20.3866 C   0  0  0  0  0  0  0  0  0  0  0  0
   13.5280   10.3522   19.3586 C   0  0  0  0  0  0  0  0  0  0  0  0
    9.6923    5.6468   22.7891 C   0  0  0  0  0  0  0  0  0  0  0  0
   11.7756   10.2554   20.8841 N   0  0  0  0  0  0  0  0  0  0  0  0
    8.9876   11.9370   19.8757 O   0  0  0  0  0  0  0  0  0  0  0  0
    6.0167    8.4478   21.1089 C   0  0  0  0  0  0  0  0  0  0  0  0
   11.0002   10.8890   20.0262 C   0  0  0  0  0  0  0  0  0  0  0  0
    2.1721    7.7393   20.0315 O   0  0  0  0  0  0  0  0  0  0  0  0
    9.1107   10.3880   21.3769 N   0  0  0  0  0  0  0  0  0  0  0  0
    3.9102    9.2008   20.3124 C   0  0  0  0  0  0  0  0  0  0  0  0
   12.7292   10.9960   18.4597 C   0  0  0  0  0  0  0  0  0  0  0  0
    9.3798    6.6793   23.6625 C   0  0  0  0  0  0  0  0  0  0  0  0
   14.7425   10.0739   19.0802 O   0  0  0  0  0  0  0  0  0  0  0  0
    5.1894    9.4673   20.7118 C   0  0  0  0  0  0  0  0  0  0  0  0
    7.3773    8.8224   21.4870 C   0  0  0  0  0  0  0  0  0  0  0  0
    8.4391    6.6439   21.0235 C   0  0  0  0  0  0  0  0  0  0  0  0
    9.6494   11.1353   20.4167 C   0  0  0  0  0  0  0  0  0  0  0  0
    8.1431    7.6829   21.9046 C   0  0  0  0  0  0  0  0  0  0  0  0
    7.7796   10.1314   21.5115 N   0  0  0  0  0  0  0  0  0  0  0  0
    9.2768    5.6183   21.4437 C   0  0  0  0  0  0  0  0  0  0  0  0
    8.6315    7.7322   23.1768 C   0  0  0  0  0  0  0  0  0  0  0  0
   13.0537    9.9821   20.5781 C   0  0  0  0  0  0  0  0  0  0  0  0
   10.3850    4.6575   23.2386 O   0  0  0  0  0  0  0  0  0  0  0  0
    4.2069    6.8450   20.7994 C   0  0  0  0  0  0  0  0  0  0  0  0
    3.0726   10.1043   19.8522 O   0  0  0  0  0  0  0  0  0  0  0  0
    5.5057    7.1196   21.1155 C   0  0  0  0  0  0  0  0  0  0  0  0
    7.0367   11.0229   21.9948 O   0  0  0  0  0  0  0  0  0  0  0  0
  1  8  4  0
  1 12  4  0
  2  9  1  0
  2 11  4  0
  2 25  4  0
  3 12  4  0
  3 14  1  0
  3 23  4  0
  4 13  4  0
  4 21  4  0
  4 24  1  0
  5  8  4  0
  5 23  4  0
  6 18  2  0
  7 15  4  0
  7 16  1  0
  7 27  4  0
  8 18  1  0
 10 18  1  0
 10 20  1  0
 11 15  4  0
 11 26  1  0
 13 22  4  0
 16 19  1  0
 16 20  2  0
 17 19  4  0
 17 21  4  0
 19 22  4  0
 20 28  1  0
 25 27  4  0
M  END
$$$$

 Created by Python create_sdf_string function

 28 30  0  0  0  0  0  0  0  0999 V2000
   11.4592   11.2893   18.7941 C   0  0  0  0  0  0  0  0  0  0  0  0
    3.4202    7.9009   20.3866 C   0  0  0  0  0  0  0  0  0  0  0  0
   13.5280   10.3522   19.3586 C   0  0  0  0  0  0  0  0  0  0  0  0
    9.6923    5.6468   22.7891 C   0  0  0  0  0  0  0  0  0  0  0  0
   11.7756   10.2554   20.8841 N   0  0  0  0  0  0  0  0  0  0  0  0
    8.9876   11.9370   19.8757 O   0  0  0  0  0  0  0  0  0  0  0  0
    6.0167    8.4478   21.1089 C   0  0  0  0  0  0  0  0  0  0  0  0
   11.0002   10.8890   20.0262 C   0  0  0  0  0  0  0  0  0  0  0  0
    2.1721    7.7393   20.0315 O   0  0  0  0  0  0  0  0  0  0  0  0
    9.1107   10.3880   21.3769 N   0  0  0  0  0  0  0  0  0  0  0  0
    3.9102    9.2008   20.3124 C   0  0  0  0  0  0  0  0  0  0  0  0
   12.7292   10.9960   18.4597 C   0  0  0  0  0  0  0  0  0  0  0  0
    9.3798    6.6793   23.6625 C   0  0  0  0  0  0  0  0  0  0  0  0
   14.7425   10.0739   19.0802 O   0  0  0  0  0  0  0  0  0  0  0  0
    5.1894    9.4673   20.7118 C   0  0  0  0  0  0  0  0  0  0  0  0
    7.3773    8.8224   21.4870 C   0  0  0  0  0  0  0  0  0  0  0  0
    8.4391    6.6439   21.0235 C   0  0  0  0  0  0  0  0  0  0  0  0
    9.6494   11.1353   20.4167 C   0  0  0  0  0  0  0  0  0  0  0  0
    8.1431    7.6829   21.9046 C   0  0  0  0  0  0  0  0  0  0  0  0
    7.7796   10.1314   21.5115 N   0  0  0  0  0  0  0  0  0  0  0  0
    9.2768    5.6183   21.4437 C   0  0  0  0  0  0  0  0  0  0  0  0
    8.6315    7.7322   23.1768 C   0  0  0  0  0  0  0  0  0  0  0  0
   13.0537    9.9821   20.5781 C   0  0  0  0  0  0  0  0  0  0  0  0
   10.3850    4.6575   23.2386 O   0  0  0  0  0  0  0  0  0  0  0  0
    4.2069    6.8450   20.7994 C   0  0  0  0  0  0  0  0  0  0  0  0
    3.0726   10.1043   19.8522 O   0  0  0  0  0  0  0  0  0  0  0  0
    5.5057    7.1196   21.1155 C   0  0  0  0  0  0  0  0  0  0  0  0
    7.0367   11.0229   21.9948 O   0  0  0  0  0  0  0  0  0  0  0  0
  1  8  4  0
  1 12  4  0
  2  9  1  0
  2 11  4  0
  2 25  4  0
  3 12  4  0
  3 14  1  0
  3 23  4  0
  4 13  4  0
  4 21  4  0
  4 24  1  0
  5  8  4  0
  5 23  4  0
  6 18  2  0
  7 15  4  0
  7 16  1  0
  7 27  4  0
  8 18  1  0
 10 18  1  0
 10 20  1  0
 11 15  4  0
 11 26  1  0
 13 22  4  0
 16 19  1  0
 16 20  2  0
 17 19  4  0
 17 21  4  0
 19 22  4  0
 20 28  1  0
 25 27  4  0
M  END
$$$$

 Created by Python create_sdf_string function

 28 30  0  0  0  0  0  0  0  0999 V2000
   11.4592   11.2893   18.7941 C   0  0  0  0  0  0  0  0  0  0  0  0
    3.4202    7.9009   20.3866 C   0  0  0  0  0  0  0  0  0  0  0  0
   13.5280   10.3522   19.3586 C   0  0  0  0  0  0  0  0  0  0  0  0
    9.6923    5.6468   22.7891 C   0  0  0  0  0  0  0  0  0  0  0  0
   11.7756   10.2554   20.8841 N   0  0  0  0  0  0  0  0  0  0  0  0
    8.9876   11.9370   19.8757 O   0  0  0  0  0  0  0  0  0  0  0  0
    6.0167    8.4478   21.1089 C   0  0  0  0  0  0  0  0  0  0  0  0
   11.0002   10.8890   20.0262 C   0  0  0  0  0  0  0  0  0  0  0  0
    2.1721    7.7393   20.0315 O   0  0  0  0  0  0  0  0  0  0  0  0
    9.1107   10.3880   21.3769 N   0  0  0  0  0  0  0  0  0  0  0  0
    3.9102    9.2008   20.3124 C   0  0  0  0  0  0  0  0  0  0  0  0
   12.7292   10.9960   18.4597 C   0  0  0  0  0  0  0  0  0  0  0  0
    9.3798    6.6793   23.6625 C   0  0  0  0  0  0  0  0  0  0  0  0
   14.7425   10.0739   19.0802 O   0  0  0  0  0  0  0  0  0  0  0  0
    5.1894    9.4673   20.7118 C   0  0  0  0  0  0  0  0  0  0  0  0
    7.3773    8.8224   21.4870 C   0  0  0  0  0  0  0  0  0  0  0  0
    8.4391    6.6439   21.0235 C   0  0  0  0  0  0  0  0  0  0  0  0
    9.6494   11.1353   20.4167 C   0  0  0  0  0  0  0  0  0  0  0  0
    8.1431    7.6829   21.9046 C   0  0  0  0  0  0  0  0  0  0  0  0
    7.7796   10.1314   21.5115 N   0  0  0  0  0  0  0  0  0  0  0  0
    9.2768    5.6183   21.4437 C   0  0  0  0  0  0  0  0  0  0  0  0
    8.6315    7.7322   23.1768 C   0  0  0  0  0  0  0  0  0  0  0  0
   13.0537    9.9821   20.5781 C   0  0  0  0  0  0  0  0  0  0  0  0
   10.3850    4.6575   23.2386 O   0  0  0  0  0  0  0  0  0  0  0  0
    4.2069    6.8450   20.7994 C   0  0  0  0  0  0  0  0  0  0  0  0
    3.0726   10.1043   19.8522 O   0  0  0  0  0  0  0  0  0  0  0  0
    5.5057    7.1196   21.1155 C   0  0  0  0  0  0  0  0  0  0  0  0
    7.0367   11.0229   21.9948 O   0  0  0  0  0  0  0  0  0  0  0  0
  1  8  4  0
  1 12  4  0
  2  9  1  0
  2 11  4  0
  2 25  4  0
  3 12  4  0
  3 14  1  0
  3 23  4  0
  4 13  4  0
  4 21  4  0
  4 24  1  0
  5  8  4  0
  5 23  4  0
  6 18  2  0
  7 15  4  0
  7 16  1  0
  7 27  4  0
  8 18  1  0
 10 18  1  0
 10 20  1  0
 11 15  4  0
 11 26  1  0
 13 22  4  0
 16 19  1  0
 16 20  2  0
 17 19  4  0
 17 21  4  0
 19 22  4  0
 20 28  1  0
 25 27  4  0
M  END
$$$$

 Created by Python create_sdf_string function

 28 30  0  0  0  0  0  0  0  0999 V2000
   11.4592   11.2893   18.7941 C   0  0  0  0  0  0  0  0  0  0  0  0
    3.4202    7.9009   20.3866 C   0  0  0  0  0  0  0  0  0  0  0  0
   13.5280   10.3522   19.3586 C   0  0  0  0  0  0  0  0  0  0  0  0
    9.6923    5.6468   22.7891 C   0  0  0  0  0  0  0  0  0  0  0  0
   11.7756   10.2554   20.8841 N   0  0  0  0  0  0  0  0  0  0  0  0
    8.9876   11.9370   19.8757 O   0  0  0  0  0  0  0  0  0  0  0  0
    6.0167    8.4478   21.1089 C   0  0  0  0  0  0  0  0  0  0  0  0
   11.0002   10.8890   20.0262 C   0  0  0  0  0  0  0  0  0  0  0  0
    2.1721    7.7393   20.0315 O   0  0  0  0  0  0  0  0  0  0  0  0
    9.1107   10.3880   21.3769 N   0  0  0  0  0  0  0  0  0  0  0  0
    3.9102    9.2008   20.3124 C   0  0  0  0  0  0  0  0  0  0  0  0
   12.7292   10.9960   18.4597 C   0  0  0  0  0  0  0  0  0  0  0  0
    9.3798    6.6793   23.6625 C   0  0  0  0  0  0  0  0  0  0  0  0
   14.7425   10.0739   19.0802 O   0  0  0  0  0  0  0  0  0  0  0  0
    5.1894    9.4673   20.7118 C   0  0  0  0  0  0  0  0  0  0  0  0
    7.3773    8.8224   21.4870 C   0  0  0  0  0  0  0  0  0  0  0  0
    8.4391    6.6439   21.0235 C   0  0  0  0  0  0  0  0  0  0  0  0
    9.6494   11.1353   20.4167 C   0  0  0  0  0  0  0  0  0  0  0  0
    8.1431    7.6829   21.9046 C   0  0  0  0  0  0  0  0  0  0  0  0
    7.7796   10.1314   21.5115 N   0  0  0  0  0  0  0  0  0  0  0  0
    9.2768    5.6183   21.4437 C   0  0  0  0  0  0  0  0  0  0  0  0
    8.6315    7.7322   23.1768 C   0  0  0  0  0  0  0  0  0  0  0  0
   13.0537    9.9821   20.5781 C   0  0  0  0  0  0  0  0  0  0  0  0
   10.3850    4.6575   23.2386 O   0  0  0  0  0  0  0  0  0  0  0  0
    4.2069    6.8450   20.7994 C   0  0  0  0  0  0  0  0  0  0  0  0
    3.0726   10.1043   19.8522 O   0  0  0  0  0  0  0  0  0  0  0  0
    5.5057    7.1196   21.1155 C   0  0  0  0  0  0  0  0  0  0  0  0
    7.0367   11.0229   21.9948 O   0  0  0  0  0  0  0  0  0  0  0  0
  1  8  4  0
  1 12  4  0
  2  9  1  0
  2 11  4  0
  2 25  4  0
  3 12  4  0
  3 14  1  0
  3 23  4  0
  4 13  4  0
  4 21  4  0
  4 24  1  0
  5  8  4  0
  5 23  4  0
  6 18  2  0
  7 15  4  0
  7 16  1  0
  7 27  4  0
  8 18  1  0
 10 18  1  0
 10 20  1  0
 11 15  4  0
 11 26  1  0
 13 22  4  0
 16 19  1  0
 16 20  2  0
 17 19  4  0
 17 21  4  0
 19 22  4  0
 20 28  1  0
 25 27  4  0
M  END
$$$$

 Created by Python create_sdf_string function

 28 30  0  0  0  0  0  0  0  0999 V2000
   11.4592   11.2893   18.7941 C   0  0  0  0  0  0  0  0  0  0  0  0
    3.4202    7.9009   20.3866 C   0  0  0  0  0  0  0  0  0  0  0  0
   13.5280   10.3522   19.3586 C   0  0  0  0  0  0  0  0  0  0  0  0
    9.6923    5.6468   22.7891 C   0  0  0  0  0  0  0  0  0  0  0  0
   11.7756   10.2554   20.8841 N   0  0  0  0  0  0  0  0  0  0  0  0
    8.9876   11.9370   19.8757 O   0  0  0  0  0  0  0  0  0  0  0  0
    6.0167    8.4478   21.1089 C   0  0  0  0  0  0  0  0  0  0  0  0
   11.0002   10.8890   20.0262 C   0  0  0  0  0  0  0  0  0  0  0  0
    2.1721    7.7393   20.0315 O   0  0  0  0  0  0  0  0  0  0  0  0
    9.1107   10.3880   21.3769 N   0  0  0  0  0  0  0  0  0  0  0  0
    3.9102    9.2008   20.3124 C   0  0  0  0  0  0  0  0  0  0  0  0
   12.7292   10.9960   18.4597 C   0  0  0  0  0  0  0  0  0  0  0  0
    9.3798    6.6793   23.6625 C   0  0  0  0  0  0  0  0  0  0  0  0
   14.7425   10.0739   19.0802 O   0  0  0  0  0  0  0  0  0  0  0  0
    5.1894    9.4673   20.7118 C   0  0  0  0  0  0  0  0  0  0  0  0
    7.3773    8.8224   21.4870 C   0  0  0  0  0  0  0  0  0  0  0  0
    8.4391    6.6439   21.0235 C   0  0  0  0  0  0  0  0  0  0  0  0
    9.6494   11.1353   20.4167 C   0  0  0  0  0  0  0  0  0  0  0  0
    8.1431    7.6829   21.9046 C   0  0  0  0  0  0  0  0  0  0  0  0
    7.7796   10.1314   21.5115 N   0  0  0  0  0  0  0  0  0  0  0  0
    9.2768    5.6183   21.4437 C   0  0  0  0  0  0  0  0  0  0  0  0
    8.6315    7.7322   23.1768 C   0  0  0  0  0  0  0  0  0  0  0  0
   13.0537    9.9821   20.5781 C   0  0  0  0  0  0  0  0  0  0  0  0
   10.3850    4.6575   23.2386 O   0  0  0  0  0  0  0  0  0  0  0  0
    4.2069    6.8450   20.7994 C   0  0  0  0  0  0  0  0  0  0  0  0
    3.0726   10.1043   19.8522 O   0  0  0  0  0  0  0  0  0  0  0  0
    5.5057    7.1196   21.1155 C   0  0  0  0  0  0  0  0  0  0  0  0
    7.0367   11.0229   21.9948 O   0  0  0  0  0  0  0  0  0  0  0  0
  1  8  4  0
  1 12  4  0
  2  9  1  0
  2 11  4  0
  2 25  4  0
  3 12  4  0
  3 14  1  0
  3 23  4  0
  4 13  4  0
  4 21  4  0
  4 24  1  0
  5  8  4  0
  5 23  4  0
  6 18  2  0
  7 15  4  0
  7 16  1  0
  7 27  4  0
  8 18  1  0
 10 18  1  0
 10 20  1  0
 11 15  4  0
 11 26  1  0
 13 22  4  0
 16 19  1  0
 16 20  2  0
 17 19  4  0
 17 21  4  0
 19 22  4  0
 20 28  1  0
 25 27  4  0
M  END
$$$$

 Created by Python create_sdf_string function

 28 30  0  0  0  0  0  0  0  0999 V2000
   11.4592   11.2893   18.7941 C   0  0  0  0  0  0  0  0  0  0  0  0
    3.4202    7.9009   20.3866 C   0  0  0  0  0  0  0  0  0  0  0  0
   13.5280   10.3522   19.3586 C   0  0  0  0  0  0  0  0  0  0  0  0
    9.6923    5.6468   22.7891 C   0  0  0  0  0  0  0  0  0  0  0  0
   11.7756   10.2554   20.8841 N   0  0  0  0  0  0  0  0  0  0  0  0
    8.9876   11.9370   19.8757 O   0  0  0  0  0  0  0  0  0  0  0  0
    6.0167    8.4478   21.1089 C   0  0  0  0  0  0  0  0  0  0  0  0
   11.0002   10.8890   20.0262 C   0  0  0  0  0  0  0  0  0  0  0  0
    2.1721    7.7393   20.0315 O   0  0  0  0  0  0  0  0  0  0  0  0
    9.1107   10.3880   21.3769 N   0  0  0  0  0  0  0  0  0  0  0  0
    3.9102    9.2008   20.3124 C   0  0  0  0  0  0  0  0  0  0  0  0
   12.7292   10.9960   18.4597 C   0  0  0  0  0  0  0  0  0  0  0  0
    9.3798    6.6793   23.6625 C   0  0  0  0  0  0  0  0  0  0  0  0
   14.7425   10.0739   19.0802 O   0  0  0  0  0  0  0  0  0  0  0  0
    5.1894    9.4673   20.7118 C   0  0  0  0  0  0  0  0  0  0  0  0
    7.3773    8.8224   21.4870 C   0  0  0  0  0  0  0  0  0  0  0  0
    8.4391    6.6439   21.0235 C   0  0  0  0  0  0  0  0  0  0  0  0
    9.6494   11.1353   20.4167 C   0  0  0  0  0  0  0  0  0  0  0  0
    8.1431    7.6829   21.9046 C   0  0  0  0  0  0  0  0  0  0  0  0
    7.7796   10.1314   21.5115 N   0  0  0  0  0  0  0  0  0  0  0  0
    9.2768    5.6183   21.4437 C   0  0  0  0  0  0  0  0  0  0  0  0
    8.6315    7.7322   23.1768 C   0  0  0  0  0  0  0  0  0  0  0  0
   13.0537    9.9821   20.5781 C   0  0  0  0  0  0  0  0  0  0  0  0
   10.3850    4.6575   23.2386 O   0  0  0  0  0  0  0  0  0  0  0  0
    4.2069    6.8450   20.7994 C   0  0  0  0  0  0  0  0  0  0  0  0
    3.0726   10.1043   19.8522 O   0  0  0  0  0  0  0  0  0  0  0  0
    5.5057    7.1196   21.1155 C   0  0  0  0  0  0  0  0  0  0  0  0
    7.0367   11.0229   21.9948 O   0  0  0  0  0  0  0  0  0  0  0  0
  1  8  4  0
  1 12  4  0
  2  9  1  0
  2 11  4  0
  2 25  4  0
  3 12  4  0
  3 14  1  0
  3 23  4  0
  4 13  4  0
  4 21  4  0
  4 24  1  0
  5  8  4  0
  5 23  4  0
  6 18  2  0
  7 15  4  0
  7 16  1  0
  7 27  4  0
  8 18  1  0
 10 18  1  0
 10 20  1  0
 11 15  4  0
 11 26  1  0
 13 22  4  0
 16 19  1  0
 16 20  2  0
 17 19  4  0
 17 21  4  0
 19 22  4  0
 20 28  1  0
 25 27  4  0
M  END
$$$$

 Created by Python create_sdf_string function

 28 30  0  0  0  0  0  0  0  0999 V2000
   11.4592   11.2893   18.7941 C   0  0  0  0  0  0  0  0  0  0  0  0
    3.4202    7.9009   20.3866 C   0  0  0  0  0  0  0  0  0  0  0  0
   13.5280   10.3522   19.3586 C   0  0  0  0  0  0  0  0  0  0  0  0
    9.6923    5.6468   22.7891 C   0  0  0  0  0  0  0  0  0  0  0  0
   11.7756   10.2554   20.8841 N   0  0  0  0  0  0  0  0  0  0  0  0
    8.9876   11.9370   19.8757 O   0  0  0  0  0  0  0  0  0  0  0  0
    6.0167    8.4478   21.1089 C   0  0  0  0  0  0  0  0  0  0  0  0
   11.0002   10.8890   20.0262 C   0  0  0  0  0  0  0  0  0  0  0  0
    2.1721    7.7393   20.0315 O   0  0  0  0  0  0  0  0  0  0  0  0
    9.1107   10.3880   21.3769 N   0  0  0  0  0  0  0  0  0  0  0  0
    3.9102    9.2008   20.3124 C   0  0  0  0  0  0  0  0  0  0  0  0
   12.7292   10.9960   18.4597 C   0  0  0  0  0  0  0  0  0  0  0  0
    9.3798    6.6793   23.6625 C   0  0  0  0  0  0  0  0  0  0  0  0
   14.7425   10.0739   19.0802 O   0  0  0  0  0  0  0  0  0  0  0  0
    5.1894    9.4673   20.7118 C   0  0  0  0  0  0  0  0  0  0  0  0
    7.3773    8.8224   21.4870 C   0  0  0  0  0  0  0  0  0  0  0  0
    8.4391    6.6439   21.0235 C   0  0  0  0  0  0  0  0  0  0  0  0
    9.6494   11.1353   20.4167 C   0  0  0  0  0  0  0  0  0  0  0  0
    8.1431    7.6829   21.9046 C   0  0  0  0  0  0  0  0  0  0  0  0
    7.7796   10.1314   21.5115 N   0  0  0  0  0  0  0  0  0  0  0  0
    9.2768    5.6183   21.4437 C   0  0  0  0  0  0  0  0  0  0  0  0
    8.6315    7.7322   23.1768 C   0  0  0  0  0  0  0  0  0  0  0  0
   13.0537    9.9821   20.5781 C   0  0  0  0  0  0  0  0  0  0  0  0
   10.3850    4.6575   23.2386 O   0  0  0  0  0  0  0  0  0  0  0  0
    4.2069    6.8450   20.7994 C   0  0  0  0  0  0  0  0  0  0  0  0
    3.0726   10.1043   19.8522 O   0  0  0  0  0  0  0  0  0  0  0  0
    5.5057    7.1196   21.1155 C   0  0  0  0  0  0  0  0  0  0  0  0
    7.0367   11.0229   21.9948 O   0  0  0  0  0  0  0  0  0  0  0  0
  1  8  4  0
  1 12  4  0
  2  9  1  0
  2 11  4  0
  2 25  4  0
  3 12  4  0
  3 14  1  0
  3 23  4  0
  4 13  4  0
  4 21  4  0
  4 24  1  0
  5  8  4  0
  5 23  4  0
  6 18  2  0
  7 15  4  0
  7 16  1  0
  7 27  4  0
  8 18  1  0
 10 18  1  0
 10 20  1  0
 11 15  4  0
 11 26  1  0
 13 22  4  0
 16 19  1  0
 16 20  2  0
 17 19  4  0
 17 21  4  0
 19 22  4  0
 20 28  1  0
 25 27  4  0
M  END
$$$$

 Created by Python create_sdf_string function

 28 30  0  0  0  0  0  0  0  0999 V2000
   11.4592   11.2893   18.7941 C   0  0  0  0  0  0  0  0  0  0  0  0
    3.4202    7.9009   20.3866 C   0  0  0  0  0  0  0  0  0  0  0  0
   13.5280   10.3522   19.3586 C   0  0  0  0  0  0  0  0  0  0  0  0
    9.6923    5.6468   22.7891 C   0  0  0  0  0  0  0  0  0  0  0  0
   11.7756   10.2554   20.8841 N   0  0  0  0  0  0  0  0  0  0  0  0
    8.9876   11.9370   19.8757 O   0  0  0  0  0  0  0  0  0  0  0  0
    6.0167    8.4478   21.1089 C   0  0  0  0  0  0  0  0  0  0  0  0
   11.0002   10.8890   20.0262 C   0  0  0  0  0  0  0  0  0  0  0  0
    2.1721    7.7393   20.0315 O   0  0  0  0  0  0  0  0  0  0  0  0
    9.1107   10.3880   21.3769 N   0  0  0  0  0  0  0  0  0  0  0  0
    3.9102    9.2008   20.3124 C   0  0  0  0  0  0  0  0  0  0  0  0
   12.7292   10.9960   18.4597 C   0  0  0  0  0  0  0  0  0  0  0  0
    9.3798    6.6793   23.6625 C   0  0  0  0  0  0  0  0  0  0  0  0
   14.7425   10.0739   19.0802 O   0  0  0  0  0  0  0  0  0  0  0  0
    5.1894    9.4673   20.7118 C   0  0  0  0  0  0  0  0  0  0  0  0
    7.3773    8.8224   21.4870 C   0  0  0  0  0  0  0  0  0  0  0  0
    8.4391    6.6439   21.0235 C   0  0  0  0  0  0  0  0  0  0  0  0
    9.6494   11.1353   20.4167 C   0  0  0  0  0  0  0  0  0  0  0  0
    8.1431    7.6829   21.9046 C   0  0  0  0  0  0  0  0  0  0  0  0
    7.7796   10.1314   21.5115 N   0  0  0  0  0  0  0  0  0  0  0  0
    9.2768    5.6183   21.4437 C   0  0  0  0  0  0  0  0  0  0  0  0
    8.6315    7.7322   23.1768 C   0  0  0  0  0  0  0  0  0  0  0  0
   13.0537    9.9821   20.5781 C   0  0  0  0  0  0  0  0  0  0  0  0
   10.3850    4.6575   23.2386 O   0  0  0  0  0  0  0  0  0  0  0  0
    4.2069    6.8450   20.7994 C   0  0  0  0  0  0  0  0  0  0  0  0
    3.0726   10.1043   19.8522 O   0  0  0  0  0  0  0  0  0  0  0  0
    5.5057    7.1196   21.1155 C   0  0  0  0  0  0  0  0  0  0  0  0
    7.0367   11.0229   21.9948 O   0  0  0  0  0  0  0  0  0  0  0  0
  1  8  4  0
  1 12  4  0
  2  9  1  0
  2 11  4  0
  2 25  4  0
  3 12  4  0
  3 14  1  0
  3 23  4  0
  4 13  4  0
  4 21  4  0
  4 24  1  0
  5  8  4  0
  5 23  4  0
  6 18  2  0
  7 15  4  0
  7 16  1  0
  7 27  4  0
  8 18  1  0
 10 18  1  0
 10 20  1  0
 11 15  4  0
 11 26  1  0
 13 22  4  0
 16 19  1  0
 16 20  2  0
 17 19  4  0
 17 21  4  0
 19 22  4  0
 20 28  1  0
 25 27  4  0
M  END
$$$$

 Created by Python create_sdf_string function

 28 30  0  0  0  0  0  0  0  0999 V2000
   11.4592   11.2893   18.7941 C   0  0  0  0  0  0  0  0  0  0  0  0
    3.4202    7.9009   20.3866 C   0  0  0  0  0  0  0  0  0  0  0  0
   13.5280   10.3522   19.3586 C   0  0  0  0  0  0  0  0  0  0  0  0
    9.6923    5.6468   22.7891 C   0  0  0  0  0  0  0  0  0  0  0  0
   11.7756   10.2554   20.8841 N   0  0  0  0  0  0  0  0  0  0  0  0
    8.9876   11.9370   19.8757 O   0  0  0  0  0  0  0  0  0  0  0  0
    6.0167    8.4478   21.1089 C   0  0  0  0  0  0  0  0  0  0  0  0
   11.0002   10.8890   20.0262 C   0  0  0  0  0  0  0  0  0  0  0  0
    2.1721    7.7393   20.0315 O   0  0  0  0  0  0  0  0  0  0  0  0
    9.1107   10.3880   21.3769 N   0  0  0  0  0  0  0  0  0  0  0  0
    3.9102    9.2008   20.3124 C   0  0  0  0  0  0  0  0  0  0  0  0
   12.7292   10.9960   18.4597 C   0  0  0  0  0  0  0  0  0  0  0  0
    9.3798    6.6793   23.6625 C   0  0  0  0  0  0  0  0  0  0  0  0
   14.7425   10.0739   19.0802 O   0  0  0  0  0  0  0  0  0  0  0  0
    5.1894    9.4673   20.7118 C   0  0  0  0  0  0  0  0  0  0  0  0
    7.3773    8.8224   21.4870 C   0  0  0  0  0  0  0  0  0  0  0  0
    8.4391    6.6439   21.0235 C   0  0  0  0  0  0  0  0  0  0  0  0
    9.6494   11.1353   20.4167 C   0  0  0  0  0  0  0  0  0  0  0  0
    8.1431    7.6829   21.9046 C   0  0  0  0  0  0  0  0  0  0  0  0
    7.7796   10.1314   21.5115 N   0  0  0  0  0  0  0  0  0  0  0  0
    9.2768    5.6183   21.4437 C   0  0  0  0  0  0  0  0  0  0  0  0
    8.6315    7.7322   23.1768 C   0  0  0  0  0  0  0  0  0  0  0  0
   13.0537    9.9821   20.5781 C   0  0  0  0  0  0  0  0  0  0  0  0
   10.3850    4.6575   23.2386 O   0  0  0  0  0  0  0  0  0  0  0  0
    4.2069    6.8450   20.7994 C   0  0  0  0  0  0  0  0  0  0  0  0
    3.0726   10.1043   19.8522 O   0  0  0  0  0  0  0  0  0  0  0  0
    5.5057    7.1196   21.1155 C   0  0  0  0  0  0  0  0  0  0  0  0
    7.0367   11.0229   21.9948 O   0  0  0  0  0  0  0  0  0  0  0  0
  1  8  4  0
  1 12  4  0
  2  9  1  0
  2 11  4  0
  2 25  4  0
  3 12  4  0
  3 14  1  0
  3 23  4  0
  4 13  4  0
  4 21  4  0
  4 24  1  0
  5  8  4  0
  5 23  4  0
  6 18  2  0
  7 15  4  0
  7 16  1  0
  7 27  4  0
  8 18  1  0
 10 18  1  0
 10 20  1  0
 11 15  4  0
 11 26  1  0
 13 22  4  0
 16 19  1  0
 16 20  2  0
 17 19  4  0
 17 21  4  0
 19 22  4  0
 20 28  1  0
 25 27  4  0
M  END
$$$$

 Created by Python create_sdf_string function

 28 30  0  0  0  0  0  0  0  0999 V2000
   11.4592   11.2893   18.7941 C   0  0  0  0  0  0  0  0  0  0  0  0
    3.4202    7.9009   20.3866 C   0  0  0  0  0  0  0  0  0  0  0  0
   13.5280   10.3522   19.3586 C   0  0  0  0  0  0  0  0  0  0  0  0
    9.6923    5.6468   22.7891 C   0  0  0  0  0  0  0  0  0  0  0  0
   11.7756   10.2554   20.8841 N   0  0  0  0  0  0  0  0  0  0  0  0
    8.9876   11.9370   19.8757 O   0  0  0  0  0  0  0  0  0  0  0  0
    6.0167    8.4478   21.1089 C   0  0  0  0  0  0  0  0  0  0  0  0
   11.0002   10.8890   20.0262 C   0  0  0  0  0  0  0  0  0  0  0  0
    2.1721    7.7393   20.0315 O   0  0  0  0  0  0  0  0  0  0  0  0
    9.1107   10.3880   21.3769 N   0  0  0  0  0  0  0  0  0  0  0  0
    3.9102    9.2008   20.3124 C   0  0  0  0  0  0  0  0  0  0  0  0
   12.7292   10.9960   18.4597 C   0  0  0  0  0  0  0  0  0  0  0  0
    9.3798    6.6793   23.6625 C   0  0  0  0  0  0  0  0  0  0  0  0
   14.7425   10.0739   19.0802 O   0  0  0  0  0  0  0  0  0  0  0  0
    5.1894    9.4673   20.7118 C   0  0  0  0  0  0  0  0  0  0  0  0
    7.3773    8.8224   21.4870 C   0  0  0  0  0  0  0  0  0  0  0  0
    8.4391    6.6439   21.0235 C   0  0  0  0  0  0  0  0  0  0  0  0
    9.6494   11.1353   20.4167 C   0  0  0  0  0  0  0  0  0  0  0  0
    8.1431    7.6829   21.9046 C   0  0  0  0  0  0  0  0  0  0  0  0
    7.7796   10.1314   21.5115 N   0  0  0  0  0  0  0  0  0  0  0  0
    9.2768    5.6183   21.4437 C   0  0  0  0  0  0  0  0  0  0  0  0
    8.6315    7.7322   23.1768 C   0  0  0  0  0  0  0  0  0  0  0  0
   13.0537    9.9821   20.5781 C   0  0  0  0  0  0  0  0  0  0  0  0
   10.3850    4.6575   23.2386 O   0  0  0  0  0  0  0  0  0  0  0  0
    4.2069    6.8450   20.7994 C   0  0  0  0  0  0  0  0  0  0  0  0
    3.0726   10.1043   19.8522 O   0  0  0  0  0  0  0  0  0  0  0  0
    5.5057    7.1196   21.1155 C   0  0  0  0  0  0  0  0  0  0  0  0
    7.0367   11.0229   21.9948 O   0  0  0  0  0  0  0  0  0  0  0  0
  1  8  4  0
  1 12  4  0
  2  9  1  0
  2 11  4  0
  2 25  4  0
  3 12  4  0
  3 14  1  0
  3 23  4  0
  4 13  4  0
  4 21  4  0
  4 24  1  0
  5  8  4  0
  5 23  4  0
  6 18  2  0
  7 15  4  0
  7 16  1  0
  7 27  4  0
  8 18  1  0
 10 18  1  0
 10 20  1  0
 11 15  4  0
 11 26  1  0
 13 22  4  0
 16 19  1  0
 16 20  2  0
 17 19  4  0
 17 21  4  0
 19 22  4  0
 20 28  1  0
 25 27  4  0
M  END
$$$$

 Created by Python create_sdf_string function

 28 30  0  0  0  0  0  0  0  0999 V2000
   11.4592   11.2893   18.7941 C   0  0  0  0  0  0  0  0  0  0  0  0
    3.4202    7.9009   20.3866 C   0  0  0  0  0  0  0  0  0  0  0  0
   13.5280   10.3522   19.3586 C   0  0  0  0  0  0  0  0  0  0  0  0
    9.6923    5.6468   22.7891 C   0  0  0  0  0  0  0  0  0  0  0  0
   11.7756   10.2554   20.8841 N   0  0  0  0  0  0  0  0  0  0  0  0
    8.9876   11.9370   19.8757 O   0  0  0  0  0  0  0  0  0  0  0  0
    6.0167    8.4478   21.1089 C   0  0  0  0  0  0  0  0  0  0  0  0
   11.0002   10.8890   20.0262 C   0  0  0  0  0  0  0  0  0  0  0  0
    2.1721    7.7393   20.0315 O   0  0  0  0  0  0  0  0  0  0  0  0
    9.1107   10.3880   21.3769 N   0  0  0  0  0  0  0  0  0  0  0  0
    3.9102    9.2008   20.3124 C   0  0  0  0  0  0  0  0  0  0  0  0
   12.7292   10.9960   18.4597 C   0  0  0  0  0  0  0  0  0  0  0  0
    9.3798    6.6793   23.6625 C   0  0  0  0  0  0  0  0  0  0  0  0
   14.7425   10.0739   19.0802 O   0  0  0  0  0  0  0  0  0  0  0  0
    5.1894    9.4673   20.7118 C   0  0  0  0  0  0  0  0  0  0  0  0
    7.3773    8.8224   21.4870 C   0  0  0  0  0  0  0  0  0  0  0  0
    8.4391    6.6439   21.0235 C   0  0  0  0  0  0  0  0  0  0  0  0
    9.6494   11.1353   20.4167 C   0  0  0  0  0  0  0  0  0  0  0  0
    8.1431    7.6829   21.9046 C   0  0  0  0  0  0  0  0  0  0  0  0
    7.7796   10.1314   21.5115 N   0  0  0  0  0  0  0  0  0  0  0  0
    9.2768    5.6183   21.4437 C   0  0  0  0  0  0  0  0  0  0  0  0
    8.6315    7.7322   23.1768 C   0  0  0  0  0  0  0  0  0  0  0  0
   13.0537    9.9821   20.5781 C   0  0  0  0  0  0  0  0  0  0  0  0
   10.3850    4.6575   23.2386 O   0  0  0  0  0  0  0  0  0  0  0  0
    4.2069    6.8450   20.7994 C   0  0  0  0  0  0  0  0  0  0  0  0
    3.0726   10.1043   19.8522 O   0  0  0  0  0  0  0  0  0  0  0  0
    5.5057    7.1196   21.1155 C   0  0  0  0  0  0  0  0  0  0  0  0
    7.0367   11.0229   21.9948 O   0  0  0  0  0  0  0  0  0  0  0  0
  1  8  4  0
  1 12  4  0
  2  9  1  0
  2 11  4  0
  2 25  4  0
  3 12  4  0
  3 14  1  0
  3 23  4  0
  4 13  4  0
  4 21  4  0
  4 24  1  0
  5  8  4  0
  5 23  4  0
  6 18  2  0
  7 15  4  0
  7 16  1  0
  7 27  4  0
  8 18  1  0
 10 18  1  0
 10 20  1  0
 11 15  4  0
 11 26  1  0
 13 22  4  0
 16 19  1  0
 16 20  2  0
 17 19  4  0
 17 21  4  0
 19 22  4  0
 20 28  1  0
 25 27  4  0
M  END
$$$$

 Created by Python create_sdf_string function

 28 30  0  0  0  0  0  0  0  0999 V2000
   11.4592   11.2893   18.7941 C   0  0  0  0  0  0  0  0  0  0  0  0
    3.4202    7.9009   20.3866 C   0  0  0  0  0  0  0  0  0  0  0  0
   13.5280   10.3522   19.3586 C   0  0  0  0  0  0  0  0  0  0  0  0
    9.6923    5.6468   22.7891 C   0  0  0  0  0  0  0  0  0  0  0  0
   11.7756   10.2554   20.8841 N   0  0  0  0  0  0  0  0  0  0  0  0
    8.9876   11.9370   19.8757 O   0  0  0  0  0  0  0  0  0  0  0  0
    6.0167    8.4478   21.1089 C   0  0  0  0  0  0  0  0  0  0  0  0
   11.0002   10.8890   20.0262 C   0  0  0  0  0  0  0  0  0  0  0  0
    2.1721    7.7393   20.0315 O   0  0  0  0  0  0  0  0  0  0  0  0
    9.1107   10.3880   21.3769 N   0  0  0  0  0  0  0  0  0  0  0  0
    3.9102    9.2008   20.3124 C   0  0  0  0  0  0  0  0  0  0  0  0
   12.7292   10.9960   18.4597 C   0  0  0  0  0  0  0  0  0  0  0  0
    9.3798    6.6793   23.6625 C   0  0  0  0  0  0  0  0  0  0  0  0
   14.7425   10.0739   19.0802 O   0  0  0  0  0  0  0  0  0  0  0  0
    5.1894    9.4673   20.7118 C   0  0  0  0  0  0  0  0  0  0  0  0
    7.3773    8.8224   21.4870 C   0  0  0  0  0  0  0  0  0  0  0  0
    8.4391    6.6439   21.0235 C   0  0  0  0  0  0  0  0  0  0  0  0
    9.6494   11.1353   20.4167 C   0  0  0  0  0  0  0  0  0  0  0  0
    8.1431    7.6829   21.9046 C   0  0  0  0  0  0  0  0  0  0  0  0
    7.7796   10.1314   21.5115 N   0  0  0  0  0  0  0  0  0  0  0  0
    9.2768    5.6183   21.4437 C   0  0  0  0  0  0  0  0  0  0  0  0
    8.6315    7.7322   23.1768 C   0  0  0  0  0  0  0  0  0  0  0  0
   13.0537    9.9821   20.5781 C   0  0  0  0  0  0  0  0  0  0  0  0
   10.3850    4.6575   23.2386 O   0  0  0  0  0  0  0  0  0  0  0  0
    4.2069    6.8450   20.7994 C   0  0  0  0  0  0  0  0  0  0  0  0
    3.0726   10.1043   19.8522 O   0  0  0  0  0  0  0  0  0  0  0  0
    5.5057    7.1196   21.1155 C   0  0  0  0  0  0  0  0  0  0  0  0
    7.0367   11.0229   21.9948 O   0  0  0  0  0  0  0  0  0  0  0  0
  1  8  4  0
  1 12  4  0
  2  9  1  0
  2 11  4  0
  2 25  4  0
  3 12  4  0
  3 14  1  0
  3 23  4  0
  4 13  4  0
  4 21  4  0
  4 24  1  0
  5  8  4  0
  5 23  4  0
  6 18  2  0
  7 15  4  0
  7 16  1  0
  7 27  4  0
  8 18  1  0
 10 18  1  0
 10 20  1  0
 11 15  4  0
 11 26  1  0
 13 22  4  0
 16 19  1  0
 16 20  2  0
 17 19  4  0
 17 21  4  0
 19 22  4  0
 20 28  1  0
 25 27  4  0
M  END
$$$$

 Created by Python create_sdf_string function

 28 30  0  0  0  0  0  0  0  0999 V2000
   11.4592   11.2893   18.7941 C   0  0  0  0  0  0  0  0  0  0  0  0
    3.4202    7.9009   20.3866 C   0  0  0  0  0  0  0  0  0  0  0  0
   13.5280   10.3522   19.3586 C   0  0  0  0  0  0  0  0  0  0  0  0
    9.6923    5.6468   22.7891 C   0  0  0  0  0  0  0  0  0  0  0  0
   11.7756   10.2554   20.8841 N   0  0  0  0  0  0  0  0  0  0  0  0
    8.9876   11.9370   19.8757 O   0  0  0  0  0  0  0  0  0  0  0  0
    6.0167    8.4478   21.1089 C   0  0  0  0  0  0  0  0  0  0  0  0
   11.0002   10.8890   20.0262 C   0  0  0  0  0  0  0  0  0  0  0  0
    2.1721    7.7393   20.0315 O   0  0  0  0  0  0  0  0  0  0  0  0
    9.1107   10.3880   21.3769 N   0  0  0  0  0  0  0  0  0  0  0  0
    3.9102    9.2008   20.3124 C   0  0  0  0  0  0  0  0  0  0  0  0
   12.7292   10.9960   18.4597 C   0  0  0  0  0  0  0  0  0  0  0  0
    9.3798    6.6793   23.6625 C   0  0  0  0  0  0  0  0  0  0  0  0
   14.7425   10.0739   19.0802 O   0  0  0  0  0  0  0  0  0  0  0  0
    5.1894    9.4673   20.7118 C   0  0  0  0  0  0  0  0  0  0  0  0
    7.3773    8.8224   21.4870 C   0  0  0  0  0  0  0  0  0  0  0  0
    8.4391    6.6439   21.0235 C   0  0  0  0  0  0  0  0  0  0  0  0
    9.6494   11.1353   20.4167 C   0  0  0  0  0  0  0  0  0  0  0  0
    8.1431    7.6829   21.9046 C   0  0  0  0  0  0  0  0  0  0  0  0
    7.7796   10.1314   21.5115 N   0  0  0  0  0  0  0  0  0  0  0  0
    9.2768    5.6183   21.4437 C   0  0  0  0  0  0  0  0  0  0  0  0
    8.6315    7.7322   23.1768 C   0  0  0  0  0  0  0  0  0  0  0  0
   13.0537    9.9821   20.5781 C   0  0  0  0  0  0  0  0  0  0  0  0
   10.3850    4.6575   23.2386 O   0  0  0  0  0  0  0  0  0  0  0  0
    4.2069    6.8450   20.7994 C   0  0  0  0  0  0  0  0  0  0  0  0
    3.0726   10.1043   19.8522 O   0  0  0  0  0  0  0  0  0  0  0  0
    5.5057    7.1196   21.1155 C   0  0  0  0  0  0  0  0  0  0  0  0
    7.0367   11.0229   21.9948 O   0  0  0  0  0  0  0  0  0  0  0  0
  1  8  4  0
  1 12  4  0
  2  9  1  0
  2 11  4  0
  2 25  4  0
  3 12  4  0
  3 14  1  0
  3 23  4  0
  4 13  4  0
  4 21  4  0
  4 24  1  0
  5  8  4  0
  5 23  4  0
  6 18  2  0
  7 15  4  0
  7 16  1  0
  7 27  4  0
  8 18  1  0
 10 18  1  0
 10 20  1  0
 11 15  4  0
 11 26  1  0
 13 22  4  0
 16 19  1  0
 16 20  2  0
 17 19  4  0
 17 21  4  0
 19 22  4  0
 20 28  1  0
 25 27  4  0
M  END
$$$$

 Created by Python create_sdf_string function

 28 30  0  0  0  0  0  0  0  0999 V2000
   11.4592   11.2893   18.7941 C   0  0  0  0  0  0  0  0  0  0  0  0
    3.4202    7.9009   20.3866 C   0  0  0  0  0  0  0  0  0  0  0  0
   13.5280   10.3522   19.3586 C   0  0  0  0  0  0  0  0  0  0  0  0
    9.6923    5.6468   22.7891 C   0  0  0  0  0  0  0  0  0  0  0  0
   11.7756   10.2554   20.8841 N   0  0  0  0  0  0  0  0  0  0  0  0
    8.9876   11.9370   19.8757 O   0  0  0  0  0  0  0  0  0  0  0  0
    6.0167    8.4478   21.1089 C   0  0  0  0  0  0  0  0  0  0  0  0
   11.0002   10.8890   20.0262 C   0  0  0  0  0  0  0  0  0  0  0  0
    2.1721    7.7393   20.0315 O   0  0  0  0  0  0  0  0  0  0  0  0
    9.1107   10.3880   21.3769 N   0  0  0  0  0  0  0  0  0  0  0  0
    3.9102    9.2008   20.3124 C   0  0  0  0  0  0  0  0  0  0  0  0
   12.7292   10.9960   18.4597 C   0  0  0  0  0  0  0  0  0  0  0  0
    9.3798    6.6793   23.6625 C   0  0  0  0  0  0  0  0  0  0  0  0
   14.7425   10.0739   19.0802 O   0  0  0  0  0  0  0  0  0  0  0  0
    5.1894    9.4673   20.7118 C   0  0  0  0  0  0  0  0  0  0  0  0
    7.3773    8.8224   21.4870 C   0  0  0  0  0  0  0  0  0  0  0  0
    8.4391    6.6439   21.0235 C   0  0  0  0  0  0  0  0  0  0  0  0
    9.6494   11.1353   20.4167 C   0  0  0  0  0  0  0  0  0  0  0  0
    8.1431    7.6829   21.9046 C   0  0  0  0  0  0  0  0  0  0  0  0
    7.7796   10.1314   21.5115 N   0  0  0  0  0  0  0  0  0  0  0  0
    9.2768    5.6183   21.4437 C   0  0  0  0  0  0  0  0  0  0  0  0
    8.6315    7.7322   23.1768 C   0  0  0  0  0  0  0  0  0  0  0  0
   13.0537    9.9821   20.5781 C   0  0  0  0  0  0  0  0  0  0  0  0
   10.3850    4.6575   23.2386 O   0  0  0  0  0  0  0  0  0  0  0  0
    4.2069    6.8450   20.7994 C   0  0  0  0  0  0  0  0  0  0  0  0
    3.0726   10.1043   19.8522 O   0  0  0  0  0  0  0  0  0  0  0  0
    5.5057    7.1196   21.1155 C   0  0  0  0  0  0  0  0  0  0  0  0
    7.0367   11.0229   21.9948 O   0  0  0  0  0  0  0  0  0  0  0  0
  1  8  4  0
  1 12  4  0
  2  9  1  0
  2 11  4  0
  2 25  4  0
  3 12  4  0
  3 14  1  0
  3 23  4  0
  4 13  4  0
  4 21  4  0
  4 24  1  0
  5  8  4  0
  5 23  4  0
  6 18  2  0
  7 15  4  0
  7 16  1  0
  7 27  4  0
  8 18  1  0
 10 18  1  0
 10 20  1  0
 11 15  4  0
 11 26  1  0
 13 22  4  0
 16 19  1  0
 16 20  2  0
 17 19  4  0
 17 21  4  0
 19 22  4  0
 20 28  1  0
 25 27  4  0
M  END
$$$$

 Created by Python create_sdf_string function

 28 30  0  0  0  0  0  0  0  0999 V2000
   11.4592   11.2893   18.7941 C   0  0  0  0  0  0  0  0  0  0  0  0
    3.4202    7.9009   20.3866 C   0  0  0  0  0  0  0  0  0  0  0  0
   13.5280   10.3522   19.3586 C   0  0  0  0  0  0  0  0  0  0  0  0
    9.6923    5.6468   22.7891 C   0  0  0  0  0  0  0  0  0  0  0  0
   11.7756   10.2554   20.8841 N   0  0  0  0  0  0  0  0  0  0  0  0
    8.9876   11.9370   19.8757 O   0  0  0  0  0  0  0  0  0  0  0  0
    6.0167    8.4478   21.1089 C   0  0  0  0  0  0  0  0  0  0  0  0
   11.0002   10.8890   20.0262 C   0  0  0  0  0  0  0  0  0  0  0  0
    2.1721    7.7393   20.0315 O   0  0  0  0  0  0  0  0  0  0  0  0
    9.1107   10.3880   21.3769 N   0  0  0  0  0  0  0  0  0  0  0  0
    3.9102    9.2008   20.3124 C   0  0  0  0  0  0  0  0  0  0  0  0
   12.7292   10.9960   18.4597 C   0  0  0  0  0  0  0  0  0  0  0  0
    9.3798    6.6793   23.6625 C   0  0  0  0  0  0  0  0  0  0  0  0
   14.7425   10.0739   19.0802 O   0  0  0  0  0  0  0  0  0  0  0  0
    5.1894    9.4673   20.7118 C   0  0  0  0  0  0  0  0  0  0  0  0
    7.3773    8.8224   21.4870 C   0  0  0  0  0  0  0  0  0  0  0  0
    8.4391    6.6439   21.0235 C   0  0  0  0  0  0  0  0  0  0  0  0
    9.6494   11.1353   20.4167 C   0  0  0  0  0  0  0  0  0  0  0  0
    8.1431    7.6829   21.9046 C   0  0  0  0  0  0  0  0  0  0  0  0
    7.7796   10.1314   21.5115 N   0  0  0  0  0  0  0  0  0  0  0  0
    9.2768    5.6183   21.4437 C   0  0  0  0  0  0  0  0  0  0  0  0
    8.6315    7.7322   23.1768 C   0  0  0  0  0  0  0  0  0  0  0  0
   13.0537    9.9821   20.5781 C   0  0  0  0  0  0  0  0  0  0  0  0
   10.3850    4.6575   23.2386 O   0  0  0  0  0  0  0  0  0  0  0  0
    4.2069    6.8450   20.7994 C   0  0  0  0  0  0  0  0  0  0  0  0
    3.0726   10.1043   19.8522 O   0  0  0  0  0  0  0  0  0  0  0  0
    5.5057    7.1196   21.1155 C   0  0  0  0  0  0  0  0  0  0  0  0
    7.0367   11.0229   21.9948 O   0  0  0  0  0  0  0  0  0  0  0  0
  1  8  4  0
  1 12  4  0
  2  9  1  0
  2 11  4  0
  2 25  4  0
  3 12  4  0
  3 14  1  0
  3 23  4  0
  4 13  4  0
  4 21  4  0
  4 24  1  0
  5  8  4  0
  5 23  4  0
  6 18  2  0
  7 15  4  0
  7 16  1  0
  7 27  4  0
  8 18  1  0
 10 18  1  0
 10 20  1  0
 11 15  4  0
 11 26  1  0
 13 22  4  0
 16 19  1  0
 16 20  2  0
 17 19  4  0
 17 21  4  0
 19 22  4  0
 20 28  1  0
 25 27  4  0
M  END
$$$$

 Created by Python create_sdf_string function

 28 30  0  0  0  0  0  0  0  0999 V2000
   11.4592   11.2893   18.7941 C   0  0  0  0  0  0  0  0  0  0  0  0
    3.4202    7.9009   20.3866 C   0  0  0  0  0  0  0  0  0  0  0  0
   13.5280   10.3522   19.3586 C   0  0  0  0  0  0  0  0  0  0  0  0
    9.6923    5.6468   22.7891 C   0  0  0  0  0  0  0  0  0  0  0  0
   11.7756   10.2554   20.8841 N   0  0  0  0  0  0  0  0  0  0  0  0
    8.9876   11.9370   19.8757 O   0  0  0  0  0  0  0  0  0  0  0  0
    6.0167    8.4478   21.1089 C   0  0  0  0  0  0  0  0  0  0  0  0
   11.0002   10.8890   20.0262 C   0  0  0  0  0  0  0  0  0  0  0  0
    2.1721    7.7393   20.0315 O   0  0  0  0  0  0  0  0  0  0  0  0
    9.1107   10.3880   21.3769 N   0  0  0  0  0  0  0  0  0  0  0  0
    3.9102    9.2008   20.3124 C   0  0  0  0  0  0  0  0  0  0  0  0
   12.7292   10.9960   18.4597 C   0  0  0  0  0  0  0  0  0  0  0  0
    9.3798    6.6793   23.6625 C   0  0  0  0  0  0  0  0  0  0  0  0
   14.7425   10.0739   19.0802 O   0  0  0  0  0  0  0  0  0  0  0  0
    5.1894    9.4673   20.7118 C   0  0  0  0  0  0  0  0  0  0  0  0
    7.3773    8.8224   21.4870 C   0  0  0  0  0  0  0  0  0  0  0  0
    8.4391    6.6439   21.0235 C   0  0  0  0  0  0  0  0  0  0  0  0
    9.6494   11.1353   20.4167 C   0  0  0  0  0  0  0  0  0  0  0  0
    8.1431    7.6829   21.9046 C   0  0  0  0  0  0  0  0  0  0  0  0
    7.7796   10.1314   21.5115 N   0  0  0  0  0  0  0  0  0  0  0  0
    9.2768    5.6183   21.4437 C   0  0  0  0  0  0  0  0  0  0  0  0
    8.6315    7.7322   23.1768 C   0  0  0  0  0  0  0  0  0  0  0  0
   13.0537    9.9821   20.5781 C   0  0  0  0  0  0  0  0  0  0  0  0
   10.3850    4.6575   23.2386 O   0  0  0  0  0  0  0  0  0  0  0  0
    4.2069    6.8450   20.7994 C   0  0  0  0  0  0  0  0  0  0  0  0
    3.0726   10.1043   19.8522 O   0  0  0  0  0  0  0  0  0  0  0  0
    5.5057    7.1196   21.1155 C   0  0  0  0  0  0  0  0  0  0  0  0
    7.0367   11.0229   21.9948 O   0  0  0  0  0  0  0  0  0  0  0  0
  1  8  4  0
  1 12  4  0
  2  9  1  0
  2 11  4  0
  2 25  4  0
  3 12  4  0
  3 14  1  0
  3 23  4  0
  4 13  4  0
  4 21  4  0
  4 24  1  0
  5  8  4  0
  5 23  4  0
  6 18  2  0
  7 15  4  0
  7 16  1  0
  7 27  4  0
  8 18  1  0
 10 18  1  0
 10 20  1  0
 11 15  4  0
 11 26  1  0
 13 22  4  0
 16 19  1  0
 16 20  2  0
 17 19  4  0
 17 21  4  0
 19 22  4  0
 20 28  1  0
 25 27  4  0
M  END
$$$$

 Created by Python create_sdf_string function

 28 30  0  0  0  0  0  0  0  0999 V2000
   11.4592   11.2893   18.7941 C   0  0  0  0  0  0  0  0  0  0  0  0
    3.4202    7.9009   20.3866 C   0  0  0  0  0  0  0  0  0  0  0  0
   13.5280   10.3522   19.3586 C   0  0  0  0  0  0  0  0  0  0  0  0
    9.6923    5.6468   22.7891 C   0  0  0  0  0  0  0  0  0  0  0  0
   11.7756   10.2554   20.8841 N   0  0  0  0  0  0  0  0  0  0  0  0
    8.9876   11.9370   19.8757 O   0  0  0  0  0  0  0  0  0  0  0  0
    6.0167    8.4478   21.1089 C   0  0  0  0  0  0  0  0  0  0  0  0
   11.0002   10.8890   20.0262 C   0  0  0  0  0  0  0  0  0  0  0  0
    2.1721    7.7393   20.0315 O   0  0  0  0  0  0  0  0  0  0  0  0
    9.1107   10.3880   21.3769 N   0  0  0  0  0  0  0  0  0  0  0  0
    3.9102    9.2008   20.3124 C   0  0  0  0  0  0  0  0  0  0  0  0
   12.7292   10.9960   18.4597 C   0  0  0  0  0  0  0  0  0  0  0  0
    9.3798    6.6793   23.6625 C   0  0  0  0  0  0  0  0  0  0  0  0
   14.7425   10.0739   19.0802 O   0  0  0  0  0  0  0  0  0  0  0  0
    5.1894    9.4673   20.7118 C   0  0  0  0  0  0  0  0  0  0  0  0
    7.3773    8.8224   21.4870 C   0  0  0  0  0  0  0  0  0  0  0  0
    8.4391    6.6439   21.0235 C   0  0  0  0  0  0  0  0  0  0  0  0
    9.6494   11.1353   20.4167 C   0  0  0  0  0  0  0  0  0  0  0  0
    8.1431    7.6829   21.9046 C   0  0  0  0  0  0  0  0  0  0  0  0
    7.7796   10.1314   21.5115 N   0  0  0  0  0  0  0  0  0  0  0  0
    9.2768    5.6183   21.4437 C   0  0  0  0  0  0  0  0  0  0  0  0
    8.6315    7.7322   23.1768 C   0  0  0  0  0  0  0  0  0  0  0  0
   13.0537    9.9821   20.5781 C   0  0  0  0  0  0  0  0  0  0  0  0
   10.3850    4.6575   23.2386 O   0  0  0  0  0  0  0  0  0  0  0  0
    4.2069    6.8450   20.7994 C   0  0  0  0  0  0  0  0  0  0  0  0
    3.0726   10.1043   19.8522 O   0  0  0  0  0  0  0  0  0  0  0  0
    5.5057    7.1196   21.1155 C   0  0  0  0  0  0  0  0  0  0  0  0
    7.0367   11.0229   21.9948 O   0  0  0  0  0  0  0  0  0  0  0  0
  1  8  4  0
  1 12  4  0
  2  9  1  0
  2 11  4  0
  2 25  4  0
  3 12  4  0
  3 14  1  0
  3 23  4  0
  4 13  4  0
  4 21  4  0
  4 24  1  0
  5  8  4  0
  5 23  4  0
  6 18  2  0
  7 15  4  0
  7 16  1  0
  7 27  4  0
  8 18  1  0
 10 18  1  0
 10 20  1  0
 11 15  4  0
 11 26  1  0
 13 22  4  0
 16 19  1  0
 16 20  2  0
 17 19  4  0
 17 21  4  0
 19 22  4  0
 20 28  1  0
 25 27  4  0
M  END
$$$$

 Created by Python create_sdf_string function

 28 30  0  0  0  0  0  0  0  0999 V2000
   11.4592   11.2893   18.7941 C   0  0  0  0  0  0  0  0  0  0  0  0
    3.4202    7.9009   20.3866 C   0  0  0  0  0  0  0  0  0  0  0  0
   13.5280   10.3522   19.3586 C   0  0  0  0  0  0  0  0  0  0  0  0
    9.6923    5.6468   22.7891 C   0  0  0  0  0  0  0  0  0  0  0  0
   11.7756   10.2554   20.8841 N   0  0  0  0  0  0  0  0  0  0  0  0
    8.9876   11.9370   19.8757 O   0  0  0  0  0  0  0  0  0  0  0  0
    6.0167    8.4478   21.1089 C   0  0  0  0  0  0  0  0  0  0  0  0
   11.0002   10.8890   20.0262 C   0  0  0  0  0  0  0  0  0  0  0  0
    2.1721    7.7393   20.0315 O   0  0  0  0  0  0  0  0  0  0  0  0
    9.1107   10.3880   21.3769 N   0  0  0  0  0  0  0  0  0  0  0  0
    3.9102    9.2008   20.3124 C   0  0  0  0  0  0  0  0  0  0  0  0
   12.7292   10.9960   18.4597 C   0  0  0  0  0  0  0  0  0  0  0  0
    9.3798    6.6793   23.6625 C   0  0  0  0  0  0  0  0  0  0  0  0
   14.7425   10.0739   19.0802 O   0  0  0  0  0  0  0  0  0  0  0  0
    5.1894    9.4673   20.7118 C   0  0  0  0  0  0  0  0  0  0  0  0
    7.3773    8.8224   21.4870 C   0  0  0  0  0  0  0  0  0  0  0  0
    8.4391    6.6439   21.0235 C   0  0  0  0  0  0  0  0  0  0  0  0
    9.6494   11.1353   20.4167 C   0  0  0  0  0  0  0  0  0  0  0  0
    8.1431    7.6829   21.9046 C   0  0  0  0  0  0  0  0  0  0  0  0
    7.7796   10.1314   21.5115 N   0  0  0  0  0  0  0  0  0  0  0  0
    9.2768    5.6183   21.4437 C   0  0  0  0  0  0  0  0  0  0  0  0
    8.6315    7.7322   23.1768 C   0  0  0  0  0  0  0  0  0  0  0  0
   13.0537    9.9821   20.5781 C   0  0  0  0  0  0  0  0  0  0  0  0
   10.3850    4.6575   23.2386 O   0  0  0  0  0  0  0  0  0  0  0  0
    4.2069    6.8450   20.7994 C   0  0  0  0  0  0  0  0  0  0  0  0
    3.0726   10.1043   19.8522 O   0  0  0  0  0  0  0  0  0  0  0  0
    5.5057    7.1196   21.1155 C   0  0  0  0  0  0  0  0  0  0  0  0
    7.0367   11.0229   21.9948 O   0  0  0  0  0  0  0  0  0  0  0  0
  1  8  4  0
  1 12  4  0
  2  9  1  0
  2 11  4  0
  2 25  4  0
  3 12  4  0
  3 14  1  0
  3 23  4  0
  4 13  4  0
  4 21  4  0
  4 24  1  0
  5  8  4  0
  5 23  4  0
  6 18  2  0
  7 15  4  0
  7 16  1  0
  7 27  4  0
  8 18  1  0
 10 18  1  0
 10 20  1  0
 11 15  4  0
 11 26  1  0
 13 22  4  0
 16 19  1  0
 16 20  2  0
 17 19  4  0
 17 21  4  0
 19 22  4  0
 20 28  1  0
 25 27  4  0
M  END
$$$$

 Created by Python create_sdf_string function

 28 30  0  0  0  0  0  0  0  0999 V2000
   11.4592   11.2893   18.7941 C   0  0  0  0  0  0  0  0  0  0  0  0
    3.4202    7.9009   20.3866 C   0  0  0  0  0  0  0  0  0  0  0  0
   13.5280   10.3522   19.3586 C   0  0  0  0  0  0  0  0  0  0  0  0
    9.6923    5.6468   22.7891 C   0  0  0  0  0  0  0  0  0  0  0  0
   11.7756   10.2554   20.8841 N   0  0  0  0  0  0  0  0  0  0  0  0
    8.9876   11.9370   19.8757 O   0  0  0  0  0  0  0  0  0  0  0  0
    6.0167    8.4478   21.1089 C   0  0  0  0  0  0  0  0  0  0  0  0
   11.0002   10.8890   20.0262 C   0  0  0  0  0  0  0  0  0  0  0  0
    2.1721    7.7393   20.0315 O   0  0  0  0  0  0  0  0  0  0  0  0
    9.1107   10.3880   21.3769 N   0  0  0  0  0  0  0  0  0  0  0  0
    3.9102    9.2008   20.3124 C   0  0  0  0  0  0  0  0  0  0  0  0
   12.7292   10.9960   18.4597 C   0  0  0  0  0  0  0  0  0  0  0  0
    9.3798    6.6793   23.6625 C   0  0  0  0  0  0  0  0  0  0  0  0
   14.7425   10.0739   19.0802 O   0  0  0  0  0  0  0  0  0  0  0  0
    5.1894    9.4673   20.7118 C   0  0  0  0  0  0  0  0  0  0  0  0
    7.3773    8.8224   21.4870 C   0  0  0  0  0  0  0  0  0  0  0  0
    8.4391    6.6439   21.0235 C   0  0  0  0  0  0  0  0  0  0  0  0
    9.6494   11.1353   20.4167 C   0  0  0  0  0  0  0  0  0  0  0  0
    8.1431    7.6829   21.9046 C   0  0  0  0  0  0  0  0  0  0  0  0
    7.7796   10.1314   21.5115 N   0  0  0  0  0  0  0  0  0  0  0  0
    9.2768    5.6183   21.4437 C   0  0  0  0  0  0  0  0  0  0  0  0
    8.6315    7.7322   23.1768 C   0  0  0  0  0  0  0  0  0  0  0  0
   13.0537    9.9821   20.5781 C   0  0  0  0  0  0  0  0  0  0  0  0
   10.3850    4.6575   23.2386 O   0  0  0  0  0  0  0  0  0  0  0  0
    4.2069    6.8450   20.7994 C   0  0  0  0  0  0  0  0  0  0  0  0
    3.0726   10.1043   19.8522 O   0  0  0  0  0  0  0  0  0  0  0  0
    5.5057    7.1196   21.1155 C   0  0  0  0  0  0  0  0  0  0  0  0
    7.0367   11.0229   21.9948 O   0  0  0  0  0  0  0  0  0  0  0  0
  1  8  4  0
  1 12  4  0
  2  9  1  0
  2 11  4  0
  2 25  4  0
  3 12  4  0
  3 14  1  0
  3 23  4  0
  4 13  4  0
  4 21  4  0
  4 24  1  0
  5  8  4  0
  5 23  4  0
  6 18  2  0
  7 15  4  0
  7 16  1  0
  7 27  4  0
  8 18  1  0
 10 18  1  0
 10 20  1  0
 11 15  4  0
 11 26  1  0
 13 22  4  0
 16 19  1  0
 16 20  2  0
 17 19  4  0
 17 21  4  0
 19 22  4  0
 20 28  1  0
 25 27  4  0
M  END
$$$$

 Created by Python create_sdf_string function

 28 30  0  0  0  0  0  0  0  0999 V2000
   11.4592   11.2893   18.7941 C   0  0  0  0  0  0  0  0  0  0  0  0
    3.4202    7.9009   20.3866 C   0  0  0  0  0  0  0  0  0  0  0  0
   13.5280   10.3522   19.3586 C   0  0  0  0  0  0  0  0  0  0  0  0
    9.6923    5.6468   22.7891 C   0  0  0  0  0  0  0  0  0  0  0  0
   11.7756   10.2554   20.8841 N   0  0  0  0  0  0  0  0  0  0  0  0
    8.9876   11.9370   19.8757 O   0  0  0  0  0  0  0  0  0  0  0  0
    6.0167    8.4478   21.1089 C   0  0  0  0  0  0  0  0  0  0  0  0
   11.0002   10.8890   20.0262 C   0  0  0  0  0  0  0  0  0  0  0  0
    2.1721    7.7393   20.0315 O   0  0  0  0  0  0  0  0  0  0  0  0
    9.1107   10.3880   21.3769 N   0  0  0  0  0  0  0  0  0  0  0  0
    3.9102    9.2008   20.3124 C   0  0  0  0  0  0  0  0  0  0  0  0
   12.7292   10.9960   18.4597 C   0  0  0  0  0  0  0  0  0  0  0  0
    9.3798    6.6793   23.6625 C   0  0  0  0  0  0  0  0  0  0  0  0
   14.7425   10.0739   19.0802 O   0  0  0  0  0  0  0  0  0  0  0  0
    5.1894    9.4673   20.7118 C   0  0  0  0  0  0  0  0  0  0  0  0
    7.3773    8.8224   21.4870 C   0  0  0  0  0  0  0  0  0  0  0  0
    8.4391    6.6439   21.0235 C   0  0  0  0  0  0  0  0  0  0  0  0
    9.6494   11.1353   20.4167 C   0  0  0  0  0  0  0  0  0  0  0  0
    8.1431    7.6829   21.9046 C   0  0  0  0  0  0  0  0  0  0  0  0
    7.7796   10.1314   21.5115 N   0  0  0  0  0  0  0  0  0  0  0  0
    9.2768    5.6183   21.4437 C   0  0  0  0  0  0  0  0  0  0  0  0
    8.6315    7.7322   23.1768 C   0  0  0  0  0  0  0  0  0  0  0  0
   13.0537    9.9821   20.5781 C   0  0  0  0  0  0  0  0  0  0  0  0
   10.3850    4.6575   23.2386 O   0  0  0  0  0  0  0  0  0  0  0  0
    4.2069    6.8450   20.7994 C   0  0  0  0  0  0  0  0  0  0  0  0
    3.0726   10.1043   19.8522 O   0  0  0  0  0  0  0  0  0  0  0  0
    5.5057    7.1196   21.1155 C   0  0  0  0  0  0  0  0  0  0  0  0
    7.0367   11.0229   21.9948 O   0  0  0  0  0  0  0  0  0  0  0  0
  1  8  4  0
  1 12  4  0
  2  9  1  0
  2 11  4  0
  2 25  4  0
  3 12  4  0
  3 14  1  0
  3 23  4  0
  4 13  4  0
  4 21  4  0
  4 24  1  0
  5  8  4  0
  5 23  4  0
  6 18  2  0
  7 15  4  0
  7 16  1  0
  7 27  4  0
  8 18  1  0
 10 18  1  0
 10 20  1  0
 11 15  4  0
 11 26  1  0
 13 22  4  0
 16 19  1  0
 16 20  2  0
 17 19  4  0
 17 21  4  0
 19 22  4  0
 20 28  1  0
 25 27  4  0
M  END
$$$$

 Created by Python create_sdf_string function

 28 30  0  0  0  0  0  0  0  0999 V2000
   11.4592   11.2893   18.7941 C   0  0  0  0  0  0  0  0  0  0  0  0
    3.4202    7.9009   20.3866 C   0  0  0  0  0  0  0  0  0  0  0  0
   13.5280   10.3522   19.3586 C   0  0  0  0  0  0  0  0  0  0  0  0
    9.6923    5.6468   22.7891 C   0  0  0  0  0  0  0  0  0  0  0  0
   11.7756   10.2554   20.8841 N   0  0  0  0  0  0  0  0  0  0  0  0
    8.9876   11.9370   19.8757 O   0  0  0  0  0  0  0  0  0  0  0  0
    6.0167    8.4478   21.1089 C   0  0  0  0  0  0  0  0  0  0  0  0
   11.0002   10.8890   20.0262 C   0  0  0  0  0  0  0  0  0  0  0  0
    2.1721    7.7393   20.0315 O   0  0  0  0  0  0  0  0  0  0  0  0
    9.1107   10.3880   21.3769 N   0  0  0  0  0  0  0  0  0  0  0  0
    3.9102    9.2008   20.3124 C   0  0  0  0  0  0  0  0  0  0  0  0
   12.7292   10.9960   18.4597 C   0  0  0  0  0  0  0  0  0  0  0  0
    9.3798    6.6793   23.6625 C   0  0  0  0  0  0  0  0  0  0  0  0
   14.7425   10.0739   19.0802 O   0  0  0  0  0  0  0  0  0  0  0  0
    5.1894    9.4673   20.7118 C   0  0  0  0  0  0  0  0  0  0  0  0
    7.3773    8.8224   21.4870 C   0  0  0  0  0  0  0  0  0  0  0  0
    8.4391    6.6439   21.0235 C   0  0  0  0  0  0  0  0  0  0  0  0
    9.6494   11.1353   20.4167 C   0  0  0  0  0  0  0  0  0  0  0  0
    8.1431    7.6829   21.9046 C   0  0  0  0  0  0  0  0  0  0  0  0
    7.7796   10.1314   21.5115 N   0  0  0  0  0  0  0  0  0  0  0  0
    9.2768    5.6183   21.4437 C   0  0  0  0  0  0  0  0  0  0  0  0
    8.6315    7.7322   23.1768 C   0  0  0  0  0  0  0  0  0  0  0  0
   13.0537    9.9821   20.5781 C   0  0  0  0  0  0  0  0  0  0  0  0
   10.3850    4.6575   23.2386 O   0  0  0  0  0  0  0  0  0  0  0  0
    4.2069    6.8450   20.7994 C   0  0  0  0  0  0  0  0  0  0  0  0
    3.0726   10.1043   19.8522 O   0  0  0  0  0  0  0  0  0  0  0  0
    5.5057    7.1196   21.1155 C   0  0  0  0  0  0  0  0  0  0  0  0
    7.0367   11.0229   21.9948 O   0  0  0  0  0  0  0  0  0  0  0  0
  1  8  4  0
  1 12  4  0
  2  9  1  0
  2 11  4  0
  2 25  4  0
  3 12  4  0
  3 14  1  0
  3 23  4  0
  4 13  4  0
  4 21  4  0
  4 24  1  0
  5  8  4  0
  5 23  4  0
  6 18  2  0
  7 15  4  0
  7 16  1  0
  7 27  4  0
  8 18  1  0
 10 18  1  0
 10 20  1  0
 11 15  4  0
 11 26  1  0
 13 22  4  0
 16 19  1  0
 16 20  2  0
 17 19  4  0
 17 21  4  0
 19 22  4  0
 20 28  1  0
 25 27  4  0
M  END
$$$$

 Created by Python create_sdf_string function

 28 30  0  0  0  0  0  0  0  0999 V2000
   11.4592   11.2893   18.7941 C   0  0  0  0  0  0  0  0  0  0  0  0
    3.4202    7.9009   20.3866 C   0  0  0  0  0  0  0  0  0  0  0  0
   13.5280   10.3522   19.3586 C   0  0  0  0  0  0  0  0  0  0  0  0
    9.6923    5.6468   22.7891 C   0  0  0  0  0  0  0  0  0  0  0  0
   11.7756   10.2554   20.8841 N   0  0  0  0  0  0  0  0  0  0  0  0
    8.9876   11.9370   19.8757 O   0  0  0  0  0  0  0  0  0  0  0  0
    6.0167    8.4478   21.1089 C   0  0  0  0  0  0  0  0  0  0  0  0
   11.0002   10.8890   20.0262 C   0  0  0  0  0  0  0  0  0  0  0  0
    2.1721    7.7393   20.0315 O   0  0  0  0  0  0  0  0  0  0  0  0
    9.1107   10.3880   21.3769 N   0  0  0  0  0  0  0  0  0  0  0  0
    3.9102    9.2008   20.3124 C   0  0  0  0  0  0  0  0  0  0  0  0
   12.7292   10.9960   18.4597 C   0  0  0  0  0  0  0  0  0  0  0  0
    9.3798    6.6793   23.6625 C   0  0  0  0  0  0  0  0  0  0  0  0
   14.7425   10.0739   19.0802 O   0  0  0  0  0  0  0  0  0  0  0  0
    5.1894    9.4673   20.7118 C   0  0  0  0  0  0  0  0  0  0  0  0
    7.3773    8.8224   21.4870 C   0  0  0  0  0  0  0  0  0  0  0  0
    8.4391    6.6439   21.0235 C   0  0  0  0  0  0  0  0  0  0  0  0
    9.6494   11.1353   20.4167 C   0  0  0  0  0  0  0  0  0  0  0  0
    8.1431    7.6829   21.9046 C   0  0  0  0  0  0  0  0  0  0  0  0
    7.7796   10.1314   21.5115 N   0  0  0  0  0  0  0  0  0  0  0  0
    9.2768    5.6183   21.4437 C   0  0  0  0  0  0  0  0  0  0  0  0
    8.6315    7.7322   23.1768 C   0  0  0  0  0  0  0  0  0  0  0  0
   13.0537    9.9821   20.5781 C   0  0  0  0  0  0  0  0  0  0  0  0
   10.3850    4.6575   23.2386 O   0  0  0  0  0  0  0  0  0  0  0  0
    4.2069    6.8450   20.7994 C   0  0  0  0  0  0  0  0  0  0  0  0
    3.0726   10.1043   19.8522 O   0  0  0  0  0  0  0  0  0  0  0  0
    5.5057    7.1196   21.1155 C   0  0  0  0  0  0  0  0  0  0  0  0
    7.0367   11.0229   21.9948 O   0  0  0  0  0  0  0  0  0  0  0  0
  1  8  4  0
  1 12  4  0
  2  9  1  0
  2 11  4  0
  2 25  4  0
  3 12  4  0
  3 14  1  0
  3 23  4  0
  4 13  4  0
  4 21  4  0
  4 24  1  0
  5  8  4  0
  5 23  4  0
  6 18  2  0
  7 15  4  0
  7 16  1  0
  7 27  4  0
  8 18  1  0
 10 18  1  0
 10 20  1  0
 11 15  4  0
 11 26  1  0
 13 22  4  0
 16 19  1  0
 16 20  2  0
 17 19  4  0
 17 21  4  0
 19 22  4  0
 20 28  1  0
 25 27  4  0
M  END
$$$$

 Created by Python create_sdf_string function

 28 30  0  0  0  0  0  0  0  0999 V2000
   11.4592   11.2893   18.7941 C   0  0  0  0  0  0  0  0  0  0  0  0
    3.4202    7.9009   20.3866 C   0  0  0  0  0  0  0  0  0  0  0  0
   13.5280   10.3522   19.3586 C   0  0  0  0  0  0  0  0  0  0  0  0
    9.6923    5.6468   22.7891 C   0  0  0  0  0  0  0  0  0  0  0  0
   11.7756   10.2554   20.8841 N   0  0  0  0  0  0  0  0  0  0  0  0
    8.9876   11.9370   19.8757 O   0  0  0  0  0  0  0  0  0  0  0  0
    6.0167    8.4478   21.1089 C   0  0  0  0  0  0  0  0  0  0  0  0
   11.0002   10.8890   20.0262 C   0  0  0  0  0  0  0  0  0  0  0  0
    2.1721    7.7393   20.0315 O   0  0  0  0  0  0  0  0  0  0  0  0
    9.1107   10.3880   21.3769 N   0  0  0  0  0  0  0  0  0  0  0  0
    3.9102    9.2008   20.3124 C   0  0  0  0  0  0  0  0  0  0  0  0
   12.7292   10.9960   18.4597 C   0  0  0  0  0  0  0  0  0  0  0  0
    9.3798    6.6793   23.6625 C   0  0  0  0  0  0  0  0  0  0  0  0
   14.7425   10.0739   19.0802 O   0  0  0  0  0  0  0  0  0  0  0  0
    5.1894    9.4673   20.7118 C   0  0  0  0  0  0  0  0  0  0  0  0
    7.3773    8.8224   21.4870 C   0  0  0  0  0  0  0  0  0  0  0  0
    8.4391    6.6439   21.0235 C   0  0  0  0  0  0  0  0  0  0  0  0
    9.6494   11.1353   20.4167 C   0  0  0  0  0  0  0  0  0  0  0  0
    8.1431    7.6829   21.9046 C   0  0  0  0  0  0  0  0  0  0  0  0
    7.7796   10.1314   21.5115 N   0  0  0  0  0  0  0  0  0  0  0  0
    9.2768    5.6183   21.4437 C   0  0  0  0  0  0  0  0  0  0  0  0
    8.6315    7.7322   23.1768 C   0  0  0  0  0  0  0  0  0  0  0  0
   13.0537    9.9821   20.5781 C   0  0  0  0  0  0  0  0  0  0  0  0
   10.3850    4.6575   23.2386 O   0  0  0  0  0  0  0  0  0  0  0  0
    4.2069    6.8450   20.7994 C   0  0  0  0  0  0  0  0  0  0  0  0
    3.0726   10.1043   19.8522 O   0  0  0  0  0  0  0  0  0  0  0  0
    5.5057    7.1196   21.1155 C   0  0  0  0  0  0  0  0  0  0  0  0
    7.0367   11.0229   21.9948 O   0  0  0  0  0  0  0  0  0  0  0  0
  1  8  4  0
  1 12  4  0
  2  9  1  0
  2 11  4  0
  2 25  4  0
  3 12  4  0
  3 14  1  0
  3 23  4  0
  4 13  4  0
  4 21  4  0
  4 24  1  0
  5  8  4  0
  5 23  4  0
  6 18  2  0
  7 15  4  0
  7 16  1  0
  7 27  4  0
  8 18  1  0
 10 18  1  0
 10 20  1  0
 11 15  4  0
 11 26  1  0
 13 22  4  0
 16 19  1  0
 16 20  2  0
 17 19  4  0
 17 21  4  0
 19 22  4  0
 20 28  1  0
 25 27  4  0
M  END
$$$$

 Created by Python create_sdf_string function

 28 30  0  0  0  0  0  0  0  0999 V2000
   11.4592   11.2893   18.7941 C   0  0  0  0  0  0  0  0  0  0  0  0
    3.4202    7.9009   20.3866 C   0  0  0  0  0  0  0  0  0  0  0  0
   13.5280   10.3522   19.3586 C   0  0  0  0  0  0  0  0  0  0  0  0
    9.6923    5.6468   22.7891 C   0  0  0  0  0  0  0  0  0  0  0  0
   11.7756   10.2554   20.8841 N   0  0  0  0  0  0  0  0  0  0  0  0
    8.9876   11.9370   19.8757 O   0  0  0  0  0  0  0  0  0  0  0  0
    6.0167    8.4478   21.1089 C   0  0  0  0  0  0  0  0  0  0  0  0
   11.0002   10.8890   20.0262 C   0  0  0  0  0  0  0  0  0  0  0  0
    2.1721    7.7393   20.0315 O   0  0  0  0  0  0  0  0  0  0  0  0
    9.1107   10.3880   21.3769 N   0  0  0  0  0  0  0  0  0  0  0  0
    3.9102    9.2008   20.3124 C   0  0  0  0  0  0  0  0  0  0  0  0
   12.7292   10.9960   18.4597 C   0  0  0  0  0  0  0  0  0  0  0  0
    9.3798    6.6793   23.6625 C   0  0  0  0  0  0  0  0  0  0  0  0
   14.7425   10.0739   19.0802 O   0  0  0  0  0  0  0  0  0  0  0  0
    5.1894    9.4673   20.7118 C   0  0  0  0  0  0  0  0  0  0  0  0
    7.3773    8.8224   21.4870 C   0  0  0  0  0  0  0  0  0  0  0  0
    8.4391    6.6439   21.0235 C   0  0  0  0  0  0  0  0  0  0  0  0
    9.6494   11.1353   20.4167 C   0  0  0  0  0  0  0  0  0  0  0  0
    8.1431    7.6829   21.9046 C   0  0  0  0  0  0  0  0  0  0  0  0
    7.7796   10.1314   21.5115 N   0  0  0  0  0  0  0  0  0  0  0  0
    9.2768    5.6183   21.4437 C   0  0  0  0  0  0  0  0  0  0  0  0
    8.6315    7.7322   23.1768 C   0  0  0  0  0  0  0  0  0  0  0  0
   13.0537    9.9821   20.5781 C   0  0  0  0  0  0  0  0  0  0  0  0
   10.3850    4.6575   23.2386 O   0  0  0  0  0  0  0  0  0  0  0  0
    4.2069    6.8450   20.7994 C   0  0  0  0  0  0  0  0  0  0  0  0
    3.0726   10.1043   19.8522 O   0  0  0  0  0  0  0  0  0  0  0  0
    5.5057    7.1196   21.1155 C   0  0  0  0  0  0  0  0  0  0  0  0
    7.0367   11.0229   21.9948 O   0  0  0  0  0  0  0  0  0  0  0  0
  1  8  4  0
  1 12  4  0
  2  9  1  0
  2 11  4  0
  2 25  4  0
  3 12  4  0
  3 14  1  0
  3 23  4  0
  4 13  4  0
  4 21  4  0
  4 24  1  0
  5  8  4  0
  5 23  4  0
  6 18  2  0
  7 15  4  0
  7 16  1  0
  7 27  4  0
  8 18  1  0
 10 18  1  0
 10 20  1  0
 11 15  4  0
 11 26  1  0
 13 22  4  0
 16 19  1  0
 16 20  2  0
 17 19  4  0
 17 21  4  0
 19 22  4  0
 20 28  1  0
 25 27  4  0
M  END
$$$$

 Created by Python create_sdf_string function

 28 30  0  0  0  0  0  0  0  0999 V2000
   11.4592   11.2893   18.7941 C   0  0  0  0  0  0  0  0  0  0  0  0
    3.4202    7.9009   20.3866 C   0  0  0  0  0  0  0  0  0  0  0  0
   13.5280   10.3522   19.3586 C   0  0  0  0  0  0  0  0  0  0  0  0
    9.6923    5.6468   22.7891 C   0  0  0  0  0  0  0  0  0  0  0  0
   11.7756   10.2554   20.8841 N   0  0  0  0  0  0  0  0  0  0  0  0
    8.9876   11.9370   19.8757 O   0  0  0  0  0  0  0  0  0  0  0  0
    6.0167    8.4478   21.1089 C   0  0  0  0  0  0  0  0  0  0  0  0
   11.0002   10.8890   20.0262 C   0  0  0  0  0  0  0  0  0  0  0  0
    2.1721    7.7393   20.0315 O   0  0  0  0  0  0  0  0  0  0  0  0
    9.1107   10.3880   21.3769 N   0  0  0  0  0  0  0  0  0  0  0  0
    3.9102    9.2008   20.3124 C   0  0  0  0  0  0  0  0  0  0  0  0
   12.7292   10.9960   18.4597 C   0  0  0  0  0  0  0  0  0  0  0  0
    9.3798    6.6793   23.6625 C   0  0  0  0  0  0  0  0  0  0  0  0
   14.7425   10.0739   19.0802 O   0  0  0  0  0  0  0  0  0  0  0  0
    5.1894    9.4673   20.7118 C   0  0  0  0  0  0  0  0  0  0  0  0
    7.3773    8.8224   21.4870 C   0  0  0  0  0  0  0  0  0  0  0  0
    8.4391    6.6439   21.0235 C   0  0  0  0  0  0  0  0  0  0  0  0
    9.6494   11.1353   20.4167 C   0  0  0  0  0  0  0  0  0  0  0  0
    8.1431    7.6829   21.9046 C   0  0  0  0  0  0  0  0  0  0  0  0
    7.7796   10.1314   21.5115 N   0  0  0  0  0  0  0  0  0  0  0  0
    9.2768    5.6183   21.4437 C   0  0  0  0  0  0  0  0  0  0  0  0
    8.6315    7.7322   23.1768 C   0  0  0  0  0  0  0  0  0  0  0  0
   13.0537    9.9821   20.5781 C   0  0  0  0  0  0  0  0  0  0  0  0
   10.3850    4.6575   23.2386 O   0  0  0  0  0  0  0  0  0  0  0  0
    4.2069    6.8450   20.7994 C   0  0  0  0  0  0  0  0  0  0  0  0
    3.0726   10.1043   19.8522 O   0  0  0  0  0  0  0  0  0  0  0  0
    5.5057    7.1196   21.1155 C   0  0  0  0  0  0  0  0  0  0  0  0
    7.0367   11.0229   21.9948 O   0  0  0  0  0  0  0  0  0  0  0  0
  1  8  4  0
  1 12  4  0
  2  9  1  0
  2 11  4  0
  2 25  4  0
  3 12  4  0
  3 14  1  0
  3 23  4  0
  4 13  4  0
  4 21  4  0
  4 24  1  0
  5  8  4  0
  5 23  4  0
  6 18  2  0
  7 15  4  0
  7 16  1  0
  7 27  4  0
  8 18  1  0
 10 18  1  0
 10 20  1  0
 11 15  4  0
 11 26  1  0
 13 22  4  0
 16 19  1  0
 16 20  2  0
 17 19  4  0
 17 21  4  0
 19 22  4  0
 20 28  1  0
 25 27  4  0
M  END
$$$$

 Created by Python create_sdf_string function

 28 30  0  0  0  0  0  0  0  0999 V2000
   11.4592   11.2893   18.7941 C   0  0  0  0  0  0  0  0  0  0  0  0
    3.4202    7.9009   20.3866 C   0  0  0  0  0  0  0  0  0  0  0  0
   13.5280   10.3522   19.3586 C   0  0  0  0  0  0  0  0  0  0  0  0
    9.6923    5.6468   22.7891 C   0  0  0  0  0  0  0  0  0  0  0  0
   11.7756   10.2554   20.8841 N   0  0  0  0  0  0  0  0  0  0  0  0
    8.9876   11.9370   19.8757 O   0  0  0  0  0  0  0  0  0  0  0  0
    6.0167    8.4478   21.1089 C   0  0  0  0  0  0  0  0  0  0  0  0
   11.0002   10.8890   20.0262 C   0  0  0  0  0  0  0  0  0  0  0  0
    2.1721    7.7393   20.0315 O   0  0  0  0  0  0  0  0  0  0  0  0
    9.1107   10.3880   21.3769 N   0  0  0  0  0  0  0  0  0  0  0  0
    3.9102    9.2008   20.3124 C   0  0  0  0  0  0  0  0  0  0  0  0
   12.7292   10.9960   18.4597 C   0  0  0  0  0  0  0  0  0  0  0  0
    9.3798    6.6793   23.6625 C   0  0  0  0  0  0  0  0  0  0  0  0
   14.7425   10.0739   19.0802 O   0  0  0  0  0  0  0  0  0  0  0  0
    5.1894    9.4673   20.7118 C   0  0  0  0  0  0  0  0  0  0  0  0
    7.3773    8.8224   21.4870 C   0  0  0  0  0  0  0  0  0  0  0  0
    8.4391    6.6439   21.0235 C   0  0  0  0  0  0  0  0  0  0  0  0
    9.6494   11.1353   20.4167 C   0  0  0  0  0  0  0  0  0  0  0  0
    8.1431    7.6829   21.9046 C   0  0  0  0  0  0  0  0  0  0  0  0
    7.7796   10.1314   21.5115 N   0  0  0  0  0  0  0  0  0  0  0  0
    9.2768    5.6183   21.4437 C   0  0  0  0  0  0  0  0  0  0  0  0
    8.6315    7.7322   23.1768 C   0  0  0  0  0  0  0  0  0  0  0  0
   13.0537    9.9821   20.5781 C   0  0  0  0  0  0  0  0  0  0  0  0
   10.3850    4.6575   23.2386 O   0  0  0  0  0  0  0  0  0  0  0  0
    4.2069    6.8450   20.7994 C   0  0  0  0  0  0  0  0  0  0  0  0
    3.0726   10.1043   19.8522 O   0  0  0  0  0  0  0  0  0  0  0  0
    5.5057    7.1196   21.1155 C   0  0  0  0  0  0  0  0  0  0  0  0
    7.0367   11.0229   21.9948 O   0  0  0  0  0  0  0  0  0  0  0  0
  1  8  4  0
  1 12  4  0
  2  9  1  0
  2 11  4  0
  2 25  4  0
  3 12  4  0
  3 14  1  0
  3 23  4  0
  4 13  4  0
  4 21  4  0
  4 24  1  0
  5  8  4  0
  5 23  4  0
  6 18  2  0
  7 15  4  0
  7 16  1  0
  7 27  4  0
  8 18  1  0
 10 18  1  0
 10 20  1  0
 11 15  4  0
 11 26  1  0
 13 22  4  0
 16 19  1  0
 16 20  2  0
 17 19  4  0
 17 21  4  0
 19 22  4  0
 20 28  1  0
 25 27  4  0
M  END
$$$$

 Created by Python create_sdf_string function

 28 30  0  0  0  0  0  0  0  0999 V2000
   11.4592   11.2893   18.7941 C   0  0  0  0  0  0  0  0  0  0  0  0
    3.4202    7.9009   20.3866 C   0  0  0  0  0  0  0  0  0  0  0  0
   13.5280   10.3522   19.3586 C   0  0  0  0  0  0  0  0  0  0  0  0
    9.6923    5.6468   22.7891 C   0  0  0  0  0  0  0  0  0  0  0  0
   11.7756   10.2554   20.8841 N   0  0  0  0  0  0  0  0  0  0  0  0
    8.9876   11.9370   19.8757 O   0  0  0  0  0  0  0  0  0  0  0  0
    6.0167    8.4478   21.1089 C   0  0  0  0  0  0  0  0  0  0  0  0
   11.0002   10.8890   20.0262 C   0  0  0  0  0  0  0  0  0  0  0  0
    2.1721    7.7393   20.0315 O   0  0  0  0  0  0  0  0  0  0  0  0
    9.1107   10.3880   21.3769 N   0  0  0  0  0  0  0  0  0  0  0  0
    3.9102    9.2008   20.3124 C   0  0  0  0  0  0  0  0  0  0  0  0
   12.7292   10.9960   18.4597 C   0  0  0  0  0  0  0  0  0  0  0  0
    9.3798    6.6793   23.6625 C   0  0  0  0  0  0  0  0  0  0  0  0
   14.7425   10.0739   19.0802 O   0  0  0  0  0  0  0  0  0  0  0  0
    5.1894    9.4673   20.7118 C   0  0  0  0  0  0  0  0  0  0  0  0
    7.3773    8.8224   21.4870 C   0  0  0  0  0  0  0  0  0  0  0  0
    8.4391    6.6439   21.0235 C   0  0  0  0  0  0  0  0  0  0  0  0
    9.6494   11.1353   20.4167 C   0  0  0  0  0  0  0  0  0  0  0  0
    8.1431    7.6829   21.9046 C   0  0  0  0  0  0  0  0  0  0  0  0
    7.7796   10.1314   21.5115 N   0  0  0  0  0  0  0  0  0  0  0  0
    9.2768    5.6183   21.4437 C   0  0  0  0  0  0  0  0  0  0  0  0
    8.6315    7.7322   23.1768 C   0  0  0  0  0  0  0  0  0  0  0  0
   13.0537    9.9821   20.5781 C   0  0  0  0  0  0  0  0  0  0  0  0
   10.3850    4.6575   23.2386 O   0  0  0  0  0  0  0  0  0  0  0  0
    4.2069    6.8450   20.7994 C   0  0  0  0  0  0  0  0  0  0  0  0
    3.0726   10.1043   19.8522 O   0  0  0  0  0  0  0  0  0  0  0  0
    5.5057    7.1196   21.1155 C   0  0  0  0  0  0  0  0  0  0  0  0
    7.0367   11.0229   21.9948 O   0  0  0  0  0  0  0  0  0  0  0  0
  1  8  4  0
  1 12  4  0
  2  9  1  0
  2 11  4  0
  2 25  4  0
  3 12  4  0
  3 14  1  0
  3 23  4  0
  4 13  4  0
  4 21  4  0
  4 24  1  0
  5  8  4  0
  5 23  4  0
  6 18  2  0
  7 15  4  0
  7 16  1  0
  7 27  4  0
  8 18  1  0
 10 18  1  0
 10 20  1  0
 11 15  4  0
 11 26  1  0
 13 22  4  0
 16 19  1  0
 16 20  2  0
 17 19  4  0
 17 21  4  0
 19 22  4  0
 20 28  1  0
 25 27  4  0
M  END
$$$$

 Created by Python create_sdf_string function

 28 30  0  0  0  0  0  0  0  0999 V2000
   11.4592   11.2893   18.7941 C   0  0  0  0  0  0  0  0  0  0  0  0
    3.4202    7.9009   20.3866 C   0  0  0  0  0  0  0  0  0  0  0  0
   13.5280   10.3522   19.3586 C   0  0  0  0  0  0  0  0  0  0  0  0
    9.6923    5.6468   22.7891 C   0  0  0  0  0  0  0  0  0  0  0  0
   11.7756   10.2554   20.8841 N   0  0  0  0  0  0  0  0  0  0  0  0
    8.9876   11.9370   19.8757 O   0  0  0  0  0  0  0  0  0  0  0  0
    6.0167    8.4478   21.1089 C   0  0  0  0  0  0  0  0  0  0  0  0
   11.0002   10.8890   20.0262 C   0  0  0  0  0  0  0  0  0  0  0  0
    2.1721    7.7393   20.0315 O   0  0  0  0  0  0  0  0  0  0  0  0
    9.1107   10.3880   21.3769 N   0  0  0  0  0  0  0  0  0  0  0  0
    3.9102    9.2008   20.3124 C   0  0  0  0  0  0  0  0  0  0  0  0
   12.7292   10.9960   18.4597 C   0  0  0  0  0  0  0  0  0  0  0  0
    9.3798    6.6793   23.6625 C   0  0  0  0  0  0  0  0  0  0  0  0
   14.7425   10.0739   19.0802 O   0  0  0  0  0  0  0  0  0  0  0  0
    5.1894    9.4673   20.7118 C   0  0  0  0  0  0  0  0  0  0  0  0
    7.3773    8.8224   21.4870 C   0  0  0  0  0  0  0  0  0  0  0  0
    8.4391    6.6439   21.0235 C   0  0  0  0  0  0  0  0  0  0  0  0
    9.6494   11.1353   20.4167 C   0  0  0  0  0  0  0  0  0  0  0  0
    8.1431    7.6829   21.9046 C   0  0  0  0  0  0  0  0  0  0  0  0
    7.7796   10.1314   21.5115 N   0  0  0  0  0  0  0  0  0  0  0  0
    9.2768    5.6183   21.4437 C   0  0  0  0  0  0  0  0  0  0  0  0
    8.6315    7.7322   23.1768 C   0  0  0  0  0  0  0  0  0  0  0  0
   13.0537    9.9821   20.5781 C   0  0  0  0  0  0  0  0  0  0  0  0
   10.3850    4.6575   23.2386 O   0  0  0  0  0  0  0  0  0  0  0  0
    4.2069    6.8450   20.7994 C   0  0  0  0  0  0  0  0  0  0  0  0
    3.0726   10.1043   19.8522 O   0  0  0  0  0  0  0  0  0  0  0  0
    5.5057    7.1196   21.1155 C   0  0  0  0  0  0  0  0  0  0  0  0
    7.0367   11.0229   21.9948 O   0  0  0  0  0  0  0  0  0  0  0  0
  1  8  4  0
  1 12  4  0
  2  9  1  0
  2 11  4  0
  2 25  4  0
  3 12  4  0
  3 14  1  0
  3 23  4  0
  4 13  4  0
  4 21  4  0
  4 24  1  0
  5  8  4  0
  5 23  4  0
  6 18  2  0
  7 15  4  0
  7 16  1  0
  7 27  4  0
  8 18  1  0
 10 18  1  0
 10 20  1  0
 11 15  4  0
 11 26  1  0
 13 22  4  0
 16 19  1  0
 16 20  2  0
 17 19  4  0
 17 21  4  0
 19 22  4  0
 20 28  1  0
 25 27  4  0
M  END
$$$$

 Created by Python create_sdf_string function

 28 30  0  0  0  0  0  0  0  0999 V2000
   11.4592   11.2893   18.7941 C   0  0  0  0  0  0  0  0  0  0  0  0
    3.4202    7.9009   20.3866 C   0  0  0  0  0  0  0  0  0  0  0  0
   13.5280   10.3522   19.3586 C   0  0  0  0  0  0  0  0  0  0  0  0
    9.6923    5.6468   22.7891 C   0  0  0  0  0  0  0  0  0  0  0  0
   11.7756   10.2554   20.8841 N   0  0  0  0  0  0  0  0  0  0  0  0
    8.9876   11.9370   19.8757 O   0  0  0  0  0  0  0  0  0  0  0  0
    6.0167    8.4478   21.1089 C   0  0  0  0  0  0  0  0  0  0  0  0
   11.0002   10.8890   20.0262 C   0  0  0  0  0  0  0  0  0  0  0  0
    2.1721    7.7393   20.0315 O   0  0  0  0  0  0  0  0  0  0  0  0
    9.1107   10.3880   21.3769 N   0  0  0  0  0  0  0  0  0  0  0  0
    3.9102    9.2008   20.3124 C   0  0  0  0  0  0  0  0  0  0  0  0
   12.7292   10.9960   18.4597 C   0  0  0  0  0  0  0  0  0  0  0  0
    9.3798    6.6793   23.6625 C   0  0  0  0  0  0  0  0  0  0  0  0
   14.7425   10.0739   19.0802 O   0  0  0  0  0  0  0  0  0  0  0  0
    5.1894    9.4673   20.7118 C   0  0  0  0  0  0  0  0  0  0  0  0
    7.3773    8.8224   21.4870 C   0  0  0  0  0  0  0  0  0  0  0  0
    8.4391    6.6439   21.0235 C   0  0  0  0  0  0  0  0  0  0  0  0
    9.6494   11.1353   20.4167 C   0  0  0  0  0  0  0  0  0  0  0  0
    8.1431    7.6829   21.9046 C   0  0  0  0  0  0  0  0  0  0  0  0
    7.7796   10.1314   21.5115 N   0  0  0  0  0  0  0  0  0  0  0  0
    9.2768    5.6183   21.4437 C   0  0  0  0  0  0  0  0  0  0  0  0
    8.6315    7.7322   23.1768 C   0  0  0  0  0  0  0  0  0  0  0  0
   13.0537    9.9821   20.5781 C   0  0  0  0  0  0  0  0  0  0  0  0
   10.3850    4.6575   23.2386 O   0  0  0  0  0  0  0  0  0  0  0  0
    4.2069    6.8450   20.7994 C   0  0  0  0  0  0  0  0  0  0  0  0
    3.0726   10.1043   19.8522 O   0  0  0  0  0  0  0  0  0  0  0  0
    5.5057    7.1196   21.1155 C   0  0  0  0  0  0  0  0  0  0  0  0
    7.0367   11.0229   21.9948 O   0  0  0  0  0  0  0  0  0  0  0  0
  1  8  4  0
  1 12  4  0
  2  9  1  0
  2 11  4  0
  2 25  4  0
  3 12  4  0
  3 14  1  0
  3 23  4  0
  4 13  4  0
  4 21  4  0
  4 24  1  0
  5  8  4  0
  5 23  4  0
  6 18  2  0
  7 15  4  0
  7 16  1  0
  7 27  4  0
  8 18  1  0
 10 18  1  0
 10 20  1  0
 11 15  4  0
 11 26  1  0
 13 22  4  0
 16 19  1  0
 16 20  2  0
 17 19  4  0
 17 21  4  0
 19 22  4  0
 20 28  1  0
 25 27  4  0
M  END
$$$$

 Created by Python create_sdf_string function

 28 30  0  0  0  0  0  0  0  0999 V2000
   11.4592   11.2893   18.7941 C   0  0  0  0  0  0  0  0  0  0  0  0
    3.4202    7.9009   20.3866 C   0  0  0  0  0  0  0  0  0  0  0  0
   13.5280   10.3522   19.3586 C   0  0  0  0  0  0  0  0  0  0  0  0
    9.6923    5.6468   22.7891 C   0  0  0  0  0  0  0  0  0  0  0  0
   11.7756   10.2554   20.8841 N   0  0  0  0  0  0  0  0  0  0  0  0
    8.9876   11.9370   19.8757 O   0  0  0  0  0  0  0  0  0  0  0  0
    6.0167    8.4478   21.1089 C   0  0  0  0  0  0  0  0  0  0  0  0
   11.0002   10.8890   20.0262 C   0  0  0  0  0  0  0  0  0  0  0  0
    2.1721    7.7393   20.0315 O   0  0  0  0  0  0  0  0  0  0  0  0
    9.1107   10.3880   21.3769 N   0  0  0  0  0  0  0  0  0  0  0  0
    3.9102    9.2008   20.3124 C   0  0  0  0  0  0  0  0  0  0  0  0
   12.7292   10.9960   18.4597 C   0  0  0  0  0  0  0  0  0  0  0  0
    9.3798    6.6793   23.6625 C   0  0  0  0  0  0  0  0  0  0  0  0
   14.7425   10.0739   19.0802 O   0  0  0  0  0  0  0  0  0  0  0  0
    5.1894    9.4673   20.7118 C   0  0  0  0  0  0  0  0  0  0  0  0
    7.3773    8.8224   21.4870 C   0  0  0  0  0  0  0  0  0  0  0  0
    8.4391    6.6439   21.0235 C   0  0  0  0  0  0  0  0  0  0  0  0
    9.6494   11.1353   20.4167 C   0  0  0  0  0  0  0  0  0  0  0  0
    8.1431    7.6829   21.9046 C   0  0  0  0  0  0  0  0  0  0  0  0
    7.7796   10.1314   21.5115 N   0  0  0  0  0  0  0  0  0  0  0  0
    9.2768    5.6183   21.4437 C   0  0  0  0  0  0  0  0  0  0  0  0
    8.6315    7.7322   23.1768 C   0  0  0  0  0  0  0  0  0  0  0  0
   13.0537    9.9821   20.5781 C   0  0  0  0  0  0  0  0  0  0  0  0
   10.3850    4.6575   23.2386 O   0  0  0  0  0  0  0  0  0  0  0  0
    4.2069    6.8450   20.7994 C   0  0  0  0  0  0  0  0  0  0  0  0
    3.0726   10.1043   19.8522 O   0  0  0  0  0  0  0  0  0  0  0  0
    5.5057    7.1196   21.1155 C   0  0  0  0  0  0  0  0  0  0  0  0
    7.0367   11.0229   21.9948 O   0  0  0  0  0  0  0  0  0  0  0  0
  1  8  4  0
  1 12  4  0
  2  9  1  0
  2 11  4  0
  2 25  4  0
  3 12  4  0
  3 14  1  0
  3 23  4  0
  4 13  4  0
  4 21  4  0
  4 24  1  0
  5  8  4  0
  5 23  4  0
  6 18  2  0
  7 15  4  0
  7 16  1  0
  7 27  4  0
  8 18  1  0
 10 18  1  0
 10 20  1  0
 11 15  4  0
 11 26  1  0
 13 22  4  0
 16 19  1  0
 16 20  2  0
 17 19  4  0
 17 21  4  0
 19 22  4  0
 20 28  1  0
 25 27  4  0
M  END
$$$$

 Created by Python create_sdf_string function

 28 30  0  0  0  0  0  0  0  0999 V2000
   11.4592   11.2893   18.7941 C   0  0  0  0  0  0  0  0  0  0  0  0
    3.4202    7.9009   20.3866 C   0  0  0  0  0  0  0  0  0  0  0  0
   13.5280   10.3522   19.3586 C   0  0  0  0  0  0  0  0  0  0  0  0
    9.6923    5.6468   22.7891 C   0  0  0  0  0  0  0  0  0  0  0  0
   11.7756   10.2554   20.8841 N   0  0  0  0  0  0  0  0  0  0  0  0
    8.9876   11.9370   19.8757 O   0  0  0  0  0  0  0  0  0  0  0  0
    6.0167    8.4478   21.1089 C   0  0  0  0  0  0  0  0  0  0  0  0
   11.0002   10.8890   20.0262 C   0  0  0  0  0  0  0  0  0  0  0  0
    2.1721    7.7393   20.0315 O   0  0  0  0  0  0  0  0  0  0  0  0
    9.1107   10.3880   21.3769 N   0  0  0  0  0  0  0  0  0  0  0  0
    3.9102    9.2008   20.3124 C   0  0  0  0  0  0  0  0  0  0  0  0
   12.7292   10.9960   18.4597 C   0  0  0  0  0  0  0  0  0  0  0  0
    9.3798    6.6793   23.6625 C   0  0  0  0  0  0  0  0  0  0  0  0
   14.7425   10.0739   19.0802 O   0  0  0  0  0  0  0  0  0  0  0  0
    5.1894    9.4673   20.7118 C   0  0  0  0  0  0  0  0  0  0  0  0
    7.3773    8.8224   21.4870 C   0  0  0  0  0  0  0  0  0  0  0  0
    8.4391    6.6439   21.0235 C   0  0  0  0  0  0  0  0  0  0  0  0
    9.6494   11.1353   20.4167 C   0  0  0  0  0  0  0  0  0  0  0  0
    8.1431    7.6829   21.9046 C   0  0  0  0  0  0  0  0  0  0  0  0
    7.7796   10.1314   21.5115 N   0  0  0  0  0  0  0  0  0  0  0  0
    9.2768    5.6183   21.4437 C   0  0  0  0  0  0  0  0  0  0  0  0
    8.6315    7.7322   23.1768 C   0  0  0  0  0  0  0  0  0  0  0  0
   13.0537    9.9821   20.5781 C   0  0  0  0  0  0  0  0  0  0  0  0
   10.3850    4.6575   23.2386 O   0  0  0  0  0  0  0  0  0  0  0  0
    4.2069    6.8450   20.7994 C   0  0  0  0  0  0  0  0  0  0  0  0
    3.0726   10.1043   19.8522 O   0  0  0  0  0  0  0  0  0  0  0  0
    5.5057    7.1196   21.1155 C   0  0  0  0  0  0  0  0  0  0  0  0
    7.0367   11.0229   21.9948 O   0  0  0  0  0  0  0  0  0  0  0  0
  1  8  4  0
  1 12  4  0
  2  9  1  0
  2 11  4  0
  2 25  4  0
  3 12  4  0
  3 14  1  0
  3 23  4  0
  4 13  4  0
  4 21  4  0
  4 24  1  0
  5  8  4  0
  5 23  4  0
  6 18  2  0
  7 15  4  0
  7 16  1  0
  7 27  4  0
  8 18  1  0
 10 18  1  0
 10 20  1  0
 11 15  4  0
 11 26  1  0
 13 22  4  0
 16 19  1  0
 16 20  2  0
 17 19  4  0
 17 21  4  0
 19 22  4  0
 20 28  1  0
 25 27  4  0
M  END
$$$$

 Created by Python create_sdf_string function

 28 30  0  0  0  0  0  0  0  0999 V2000
   11.4592   11.2893   18.7941 C   0  0  0  0  0  0  0  0  0  0  0  0
    3.4202    7.9009   20.3866 C   0  0  0  0  0  0  0  0  0  0  0  0
   13.5280   10.3522   19.3586 C   0  0  0  0  0  0  0  0  0  0  0  0
    9.6923    5.6468   22.7891 C   0  0  0  0  0  0  0  0  0  0  0  0
   11.7756   10.2554   20.8841 N   0  0  0  0  0  0  0  0  0  0  0  0
    8.9876   11.9370   19.8757 O   0  0  0  0  0  0  0  0  0  0  0  0
    6.0167    8.4478   21.1089 C   0  0  0  0  0  0  0  0  0  0  0  0
   11.0002   10.8890   20.0262 C   0  0  0  0  0  0  0  0  0  0  0  0
    2.1721    7.7393   20.0315 O   0  0  0  0  0  0  0  0  0  0  0  0
    9.1107   10.3880   21.3769 N   0  0  0  0  0  0  0  0  0  0  0  0
    3.9102    9.2008   20.3124 C   0  0  0  0  0  0  0  0  0  0  0  0
   12.7292   10.9960   18.4597 C   0  0  0  0  0  0  0  0  0  0  0  0
    9.3798    6.6793   23.6625 C   0  0  0  0  0  0  0  0  0  0  0  0
   14.7425   10.0739   19.0802 O   0  0  0  0  0  0  0  0  0  0  0  0
    5.1894    9.4673   20.7118 C   0  0  0  0  0  0  0  0  0  0  0  0
    7.3773    8.8224   21.4870 C   0  0  0  0  0  0  0  0  0  0  0  0
    8.4391    6.6439   21.0235 C   0  0  0  0  0  0  0  0  0  0  0  0
    9.6494   11.1353   20.4167 C   0  0  0  0  0  0  0  0  0  0  0  0
    8.1431    7.6829   21.9046 C   0  0  0  0  0  0  0  0  0  0  0  0
    7.7796   10.1314   21.5115 N   0  0  0  0  0  0  0  0  0  0  0  0
    9.2768    5.6183   21.4437 C   0  0  0  0  0  0  0  0  0  0  0  0
    8.6315    7.7322   23.1768 C   0  0  0  0  0  0  0  0  0  0  0  0
   13.0537    9.9821   20.5781 C   0  0  0  0  0  0  0  0  0  0  0  0
   10.3850    4.6575   23.2386 O   0  0  0  0  0  0  0  0  0  0  0  0
    4.2069    6.8450   20.7994 C   0  0  0  0  0  0  0  0  0  0  0  0
    3.0726   10.1043   19.8522 O   0  0  0  0  0  0  0  0  0  0  0  0
    5.5057    7.1196   21.1155 C   0  0  0  0  0  0  0  0  0  0  0  0
    7.0367   11.0229   21.9948 O   0  0  0  0  0  0  0  0  0  0  0  0
  1  8  4  0
  1 12  4  0
  2  9  1  0
  2 11  4  0
  2 25  4  0
  3 12  4  0
  3 14  1  0
  3 23  4  0
  4 13  4  0
  4 21  4  0
  4 24  1  0
  5  8  4  0
  5 23  4  0
  6 18  2  0
  7 15  4  0
  7 16  1  0
  7 27  4  0
  8 18  1  0
 10 18  1  0
 10 20  1  0
 11 15  4  0
 11 26  1  0
 13 22  4  0
 16 19  1  0
 16 20  2  0
 17 19  4  0
 17 21  4  0
 19 22  4  0
 20 28  1  0
 25 27  4  0
M  END
$$$$

 Created by Python create_sdf_string function

 28 30  0  0  0  0  0  0  0  0999 V2000
   11.4592   11.2893   18.7941 C   0  0  0  0  0  0  0  0  0  0  0  0
    3.4202    7.9009   20.3866 C   0  0  0  0  0  0  0  0  0  0  0  0
   13.5280   10.3522   19.3586 C   0  0  0  0  0  0  0  0  0  0  0  0
    9.6923    5.6468   22.7891 C   0  0  0  0  0  0  0  0  0  0  0  0
   11.7756   10.2554   20.8841 N   0  0  0  0  0  0  0  0  0  0  0  0
    8.9876   11.9370   19.8757 O   0  0  0  0  0  0  0  0  0  0  0  0
    6.0167    8.4478   21.1089 C   0  0  0  0  0  0  0  0  0  0  0  0
   11.0002   10.8890   20.0262 C   0  0  0  0  0  0  0  0  0  0  0  0
    2.1721    7.7393   20.0315 O   0  0  0  0  0  0  0  0  0  0  0  0
    9.1107   10.3880   21.3769 N   0  0  0  0  0  0  0  0  0  0  0  0
    3.9102    9.2008   20.3124 C   0  0  0  0  0  0  0  0  0  0  0  0
   12.7292   10.9960   18.4597 C   0  0  0  0  0  0  0  0  0  0  0  0
    9.3798    6.6793   23.6625 C   0  0  0  0  0  0  0  0  0  0  0  0
   14.7425   10.0739   19.0802 O   0  0  0  0  0  0  0  0  0  0  0  0
    5.1894    9.4673   20.7118 C   0  0  0  0  0  0  0  0  0  0  0  0
    7.3773    8.8224   21.4870 C   0  0  0  0  0  0  0  0  0  0  0  0
    8.4391    6.6439   21.0235 C   0  0  0  0  0  0  0  0  0  0  0  0
    9.6494   11.1353   20.4167 C   0  0  0  0  0  0  0  0  0  0  0  0
    8.1431    7.6829   21.9046 C   0  0  0  0  0  0  0  0  0  0  0  0
    7.7796   10.1314   21.5115 N   0  0  0  0  0  0  0  0  0  0  0  0
    9.2768    5.6183   21.4437 C   0  0  0  0  0  0  0  0  0  0  0  0
    8.6315    7.7322   23.1768 C   0  0  0  0  0  0  0  0  0  0  0  0
   13.0537    9.9821   20.5781 C   0  0  0  0  0  0  0  0  0  0  0  0
   10.3850    4.6575   23.2386 O   0  0  0  0  0  0  0  0  0  0  0  0
    4.2069    6.8450   20.7994 C   0  0  0  0  0  0  0  0  0  0  0  0
    3.0726   10.1043   19.8522 O   0  0  0  0  0  0  0  0  0  0  0  0
    5.5057    7.1196   21.1155 C   0  0  0  0  0  0  0  0  0  0  0  0
    7.0367   11.0229   21.9948 O   0  0  0  0  0  0  0  0  0  0  0  0
  1  8  4  0
  1 12  4  0
  2  9  1  0
  2 11  4  0
  2 25  4  0
  3 12  4  0
  3 14  1  0
  3 23  4  0
  4 13  4  0
  4 21  4  0
  4 24  1  0
  5  8  4  0
  5 23  4  0
  6 18  2  0
  7 15  4  0
  7 16  1  0
  7 27  4  0
  8 18  1  0
 10 18  1  0
 10 20  1  0
 11 15  4  0
 11 26  1  0
 13 22  4  0
 16 19  1  0
 16 20  2  0
 17 19  4  0
 17 21  4  0
 19 22  4  0
 20 28  1  0
 25 27  4  0
M  END
$$$$

 Created by Python create_sdf_string function

 28 30  0  0  0  0  0  0  0  0999 V2000
   11.4592   11.2893   18.7941 C   0  0  0  0  0  0  0  0  0  0  0  0
    3.4202    7.9009   20.3866 C   0  0  0  0  0  0  0  0  0  0  0  0
   13.5280   10.3522   19.3586 C   0  0  0  0  0  0  0  0  0  0  0  0
    9.6923    5.6468   22.7891 C   0  0  0  0  0  0  0  0  0  0  0  0
   11.7756   10.2554   20.8841 N   0  0  0  0  0  0  0  0  0  0  0  0
    8.9876   11.9370   19.8757 O   0  0  0  0  0  0  0  0  0  0  0  0
    6.0167    8.4478   21.1089 C   0  0  0  0  0  0  0  0  0  0  0  0
   11.0002   10.8890   20.0262 C   0  0  0  0  0  0  0  0  0  0  0  0
    2.1721    7.7393   20.0315 O   0  0  0  0  0  0  0  0  0  0  0  0
    9.1107   10.3880   21.3769 N   0  0  0  0  0  0  0  0  0  0  0  0
    3.9102    9.2008   20.3124 C   0  0  0  0  0  0  0  0  0  0  0  0
   12.7292   10.9960   18.4597 C   0  0  0  0  0  0  0  0  0  0  0  0
    9.3798    6.6793   23.6625 C   0  0  0  0  0  0  0  0  0  0  0  0
   14.7425   10.0739   19.0802 O   0  0  0  0  0  0  0  0  0  0  0  0
    5.1894    9.4673   20.7118 C   0  0  0  0  0  0  0  0  0  0  0  0
    7.3773    8.8224   21.4870 C   0  0  0  0  0  0  0  0  0  0  0  0
    8.4391    6.6439   21.0235 C   0  0  0  0  0  0  0  0  0  0  0  0
    9.6494   11.1353   20.4167 C   0  0  0  0  0  0  0  0  0  0  0  0
    8.1431    7.6829   21.9046 C   0  0  0  0  0  0  0  0  0  0  0  0
    7.7796   10.1314   21.5115 N   0  0  0  0  0  0  0  0  0  0  0  0
    9.2768    5.6183   21.4437 C   0  0  0  0  0  0  0  0  0  0  0  0
    8.6315    7.7322   23.1768 C   0  0  0  0  0  0  0  0  0  0  0  0
   13.0537    9.9821   20.5781 C   0  0  0  0  0  0  0  0  0  0  0  0
   10.3850    4.6575   23.2386 O   0  0  0  0  0  0  0  0  0  0  0  0
    4.2069    6.8450   20.7994 C   0  0  0  0  0  0  0  0  0  0  0  0
    3.0726   10.1043   19.8522 O   0  0  0  0  0  0  0  0  0  0  0  0
    5.5057    7.1196   21.1155 C   0  0  0  0  0  0  0  0  0  0  0  0
    7.0367   11.0229   21.9948 O   0  0  0  0  0  0  0  0  0  0  0  0
  1  8  4  0
  1 12  4  0
  2  9  1  0
  2 11  4  0
  2 25  4  0
  3 12  4  0
  3 14  1  0
  3 23  4  0
  4 13  4  0
  4 21  4  0
  4 24  1  0
  5  8  4  0
  5 23  4  0
  6 18  2  0
  7 15  4  0
  7 16  1  0
  7 27  4  0
  8 18  1  0
 10 18  1  0
 10 20  1  0
 11 15  4  0
 11 26  1  0
 13 22  4  0
 16 19  1  0
 16 20  2  0
 17 19  4  0
 17 21  4  0
 19 22  4  0
 20 28  1  0
 25 27  4  0
M  END
$$$$

 Created by Python create_sdf_string function

 28 30  0  0  0  0  0  0  0  0999 V2000
   11.4592   11.2893   18.7941 C   0  0  0  0  0  0  0  0  0  0  0  0
    3.4202    7.9009   20.3866 C   0  0  0  0  0  0  0  0  0  0  0  0
   13.5280   10.3522   19.3586 C   0  0  0  0  0  0  0  0  0  0  0  0
    9.6923    5.6468   22.7891 C   0  0  0  0  0  0  0  0  0  0  0  0
   11.7756   10.2554   20.8841 N   0  0  0  0  0  0  0  0  0  0  0  0
    8.9876   11.9370   19.8757 O   0  0  0  0  0  0  0  0  0  0  0  0
    6.0167    8.4478   21.1089 C   0  0  0  0  0  0  0  0  0  0  0  0
   11.0002   10.8890   20.0262 C   0  0  0  0  0  0  0  0  0  0  0  0
    2.1721    7.7393   20.0315 O   0  0  0  0  0  0  0  0  0  0  0  0
    9.1107   10.3880   21.3769 N   0  0  0  0  0  0  0  0  0  0  0  0
    3.9102    9.2008   20.3124 C   0  0  0  0  0  0  0  0  0  0  0  0
   12.7292   10.9960   18.4597 C   0  0  0  0  0  0  0  0  0  0  0  0
    9.3798    6.6793   23.6625 C   0  0  0  0  0  0  0  0  0  0  0  0
   14.7425   10.0739   19.0802 O   0  0  0  0  0  0  0  0  0  0  0  0
    5.1894    9.4673   20.7118 C   0  0  0  0  0  0  0  0  0  0  0  0
    7.3773    8.8224   21.4870 C   0  0  0  0  0  0  0  0  0  0  0  0
    8.4391    6.6439   21.0235 C   0  0  0  0  0  0  0  0  0  0  0  0
    9.6494   11.1353   20.4167 C   0  0  0  0  0  0  0  0  0  0  0  0
    8.1431    7.6829   21.9046 C   0  0  0  0  0  0  0  0  0  0  0  0
    7.7796   10.1314   21.5115 N   0  0  0  0  0  0  0  0  0  0  0  0
    9.2768    5.6183   21.4437 C   0  0  0  0  0  0  0  0  0  0  0  0
    8.6315    7.7322   23.1768 C   0  0  0  0  0  0  0  0  0  0  0  0
   13.0537    9.9821   20.5781 C   0  0  0  0  0  0  0  0  0  0  0  0
   10.3850    4.6575   23.2386 O   0  0  0  0  0  0  0  0  0  0  0  0
    4.2069    6.8450   20.7994 C   0  0  0  0  0  0  0  0  0  0  0  0
    3.0726   10.1043   19.8522 O   0  0  0  0  0  0  0  0  0  0  0  0
    5.5057    7.1196   21.1155 C   0  0  0  0  0  0  0  0  0  0  0  0
    7.0367   11.0229   21.9948 O   0  0  0  0  0  0  0  0  0  0  0  0
  1  8  4  0
  1 12  4  0
  2  9  1  0
  2 11  4  0
  2 25  4  0
  3 12  4  0
  3 14  1  0
  3 23  4  0
  4 13  4  0
  4 21  4  0
  4 24  1  0
  5  8  4  0
  5 23  4  0
  6 18  2  0
  7 15  4  0
  7 16  1  0
  7 27  4  0
  8 18  1  0
 10 18  1  0
 10 20  1  0
 11 15  4  0
 11 26  1  0
 13 22  4  0
 16 19  1  0
 16 20  2  0
 17 19  4  0
 17 21  4  0
 19 22  4  0
 20 28  1  0
 25 27  4  0
M  END
$$$$

 Created by Python create_sdf_string function

 28 30  0  0  0  0  0  0  0  0999 V2000
   11.4592   11.2893   18.7941 C   0  0  0  0  0  0  0  0  0  0  0  0
    3.4202    7.9009   20.3866 C   0  0  0  0  0  0  0  0  0  0  0  0
   13.5280   10.3522   19.3586 C   0  0  0  0  0  0  0  0  0  0  0  0
    9.6923    5.6468   22.7891 C   0  0  0  0  0  0  0  0  0  0  0  0
   11.7756   10.2554   20.8841 N   0  0  0  0  0  0  0  0  0  0  0  0
    8.9876   11.9370   19.8757 O   0  0  0  0  0  0  0  0  0  0  0  0
    6.0167    8.4478   21.1089 C   0  0  0  0  0  0  0  0  0  0  0  0
   11.0002   10.8890   20.0262 C   0  0  0  0  0  0  0  0  0  0  0  0
    2.1721    7.7393   20.0315 O   0  0  0  0  0  0  0  0  0  0  0  0
    9.1107   10.3880   21.3769 N   0  0  0  0  0  0  0  0  0  0  0  0
    3.9102    9.2008   20.3124 C   0  0  0  0  0  0  0  0  0  0  0  0
   12.7292   10.9960   18.4597 C   0  0  0  0  0  0  0  0  0  0  0  0
    9.3798    6.6793   23.6625 C   0  0  0  0  0  0  0  0  0  0  0  0
   14.7425   10.0739   19.0802 O   0  0  0  0  0  0  0  0  0  0  0  0
    5.1894    9.4673   20.7118 C   0  0  0  0  0  0  0  0  0  0  0  0
    7.3773    8.8224   21.4870 C   0  0  0  0  0  0  0  0  0  0  0  0
    8.4391    6.6439   21.0235 C   0  0  0  0  0  0  0  0  0  0  0  0
    9.6494   11.1353   20.4167 C   0  0  0  0  0  0  0  0  0  0  0  0
    8.1431    7.6829   21.9046 C   0  0  0  0  0  0  0  0  0  0  0  0
    7.7796   10.1314   21.5115 N   0  0  0  0  0  0  0  0  0  0  0  0
    9.2768    5.6183   21.4437 C   0  0  0  0  0  0  0  0  0  0  0  0
    8.6315    7.7322   23.1768 C   0  0  0  0  0  0  0  0  0  0  0  0
   13.0537    9.9821   20.5781 C   0  0  0  0  0  0  0  0  0  0  0  0
   10.3850    4.6575   23.2386 O   0  0  0  0  0  0  0  0  0  0  0  0
    4.2069    6.8450   20.7994 C   0  0  0  0  0  0  0  0  0  0  0  0
    3.0726   10.1043   19.8522 O   0  0  0  0  0  0  0  0  0  0  0  0
    5.5057    7.1196   21.1155 C   0  0  0  0  0  0  0  0  0  0  0  0
    7.0367   11.0229   21.9948 O   0  0  0  0  0  0  0  0  0  0  0  0
  1  8  4  0
  1 12  4  0
  2  9  1  0
  2 11  4  0
  2 25  4  0
  3 12  4  0
  3 14  1  0
  3 23  4  0
  4 13  4  0
  4 21  4  0
  4 24  1  0
  5  8  4  0
  5 23  4  0
  6 18  2  0
  7 15  4  0
  7 16  1  0
  7 27  4  0
  8 18  1  0
 10 18  1  0
 10 20  1  0
 11 15  4  0
 11 26  1  0
 13 22  4  0
 16 19  1  0
 16 20  2  0
 17 19  4  0
 17 21  4  0
 19 22  4  0
 20 28  1  0
 25 27  4  0
M  END
$$$$

 Created by Python create_sdf_string function

 28 30  0  0  0  0  0  0  0  0999 V2000
   11.4592   11.2893   18.7941 C   0  0  0  0  0  0  0  0  0  0  0  0
    3.4202    7.9009   20.3866 C   0  0  0  0  0  0  0  0  0  0  0  0
   13.5280   10.3522   19.3586 C   0  0  0  0  0  0  0  0  0  0  0  0
    9.6923    5.6468   22.7891 C   0  0  0  0  0  0  0  0  0  0  0  0
   11.7756   10.2554   20.8841 N   0  0  0  0  0  0  0  0  0  0  0  0
    8.9876   11.9370   19.8757 O   0  0  0  0  0  0  0  0  0  0  0  0
    6.0167    8.4478   21.1089 C   0  0  0  0  0  0  0  0  0  0  0  0
   11.0002   10.8890   20.0262 C   0  0  0  0  0  0  0  0  0  0  0  0
    2.1721    7.7393   20.0315 O   0  0  0  0  0  0  0  0  0  0  0  0
    9.1107   10.3880   21.3769 N   0  0  0  0  0  0  0  0  0  0  0  0
    3.9102    9.2008   20.3124 C   0  0  0  0  0  0  0  0  0  0  0  0
   12.7292   10.9960   18.4597 C   0  0  0  0  0  0  0  0  0  0  0  0
    9.3798    6.6793   23.6625 C   0  0  0  0  0  0  0  0  0  0  0  0
   14.7425   10.0739   19.0802 O   0  0  0  0  0  0  0  0  0  0  0  0
    5.1894    9.4673   20.7118 C   0  0  0  0  0  0  0  0  0  0  0  0
    7.3773    8.8224   21.4870 C   0  0  0  0  0  0  0  0  0  0  0  0
    8.4391    6.6439   21.0235 C   0  0  0  0  0  0  0  0  0  0  0  0
    9.6494   11.1353   20.4167 C   0  0  0  0  0  0  0  0  0  0  0  0
    8.1431    7.6829   21.9046 C   0  0  0  0  0  0  0  0  0  0  0  0
    7.7796   10.1314   21.5115 N   0  0  0  0  0  0  0  0  0  0  0  0
    9.2768    5.6183   21.4437 C   0  0  0  0  0  0  0  0  0  0  0  0
    8.6315    7.7322   23.1768 C   0  0  0  0  0  0  0  0  0  0  0  0
   13.0537    9.9821   20.5781 C   0  0  0  0  0  0  0  0  0  0  0  0
   10.3850    4.6575   23.2386 O   0  0  0  0  0  0  0  0  0  0  0  0
    4.2069    6.8450   20.7994 C   0  0  0  0  0  0  0  0  0  0  0  0
    3.0726   10.1043   19.8522 O   0  0  0  0  0  0  0  0  0  0  0  0
    5.5057    7.1196   21.1155 C   0  0  0  0  0  0  0  0  0  0  0  0
    7.0367   11.0229   21.9948 O   0  0  0  0  0  0  0  0  0  0  0  0
  1  8  4  0
  1 12  4  0
  2  9  1  0
  2 11  4  0
  2 25  4  0
  3 12  4  0
  3 14  1  0
  3 23  4  0
  4 13  4  0
  4 21  4  0
  4 24  1  0
  5  8  4  0
  5 23  4  0
  6 18  2  0
  7 15  4  0
  7 16  1  0
  7 27  4  0
  8 18  1  0
 10 18  1  0
 10 20  1  0
 11 15  4  0
 11 26  1  0
 13 22  4  0
 16 19  1  0
 16 20  2  0
 17 19  4  0
 17 21  4  0
 19 22  4  0
 20 28  1  0
 25 27  4  0
M  END
$$$$

 Created by Python create_sdf_string function

 28 30  0  0  0  0  0  0  0  0999 V2000
   11.4592   11.2893   18.7941 C   0  0  0  0  0  0  0  0  0  0  0  0
    3.4202    7.9009   20.3866 C   0  0  0  0  0  0  0  0  0  0  0  0
   13.5280   10.3522   19.3586 C   0  0  0  0  0  0  0  0  0  0  0  0
    9.6923    5.6468   22.7891 C   0  0  0  0  0  0  0  0  0  0  0  0
   11.7756   10.2554   20.8841 N   0  0  0  0  0  0  0  0  0  0  0  0
    8.9876   11.9370   19.8757 O   0  0  0  0  0  0  0  0  0  0  0  0
    6.0167    8.4478   21.1089 C   0  0  0  0  0  0  0  0  0  0  0  0
   11.0002   10.8890   20.0262 C   0  0  0  0  0  0  0  0  0  0  0  0
    2.1721    7.7393   20.0315 O   0  0  0  0  0  0  0  0  0  0  0  0
    9.1107   10.3880   21.3769 N   0  0  0  0  0  0  0  0  0  0  0  0
    3.9102    9.2008   20.3124 C   0  0  0  0  0  0  0  0  0  0  0  0
   12.7292   10.9960   18.4597 C   0  0  0  0  0  0  0  0  0  0  0  0
    9.3798    6.6793   23.6625 C   0  0  0  0  0  0  0  0  0  0  0  0
   14.7425   10.0739   19.0802 O   0  0  0  0  0  0  0  0  0  0  0  0
    5.1894    9.4673   20.7118 C   0  0  0  0  0  0  0  0  0  0  0  0
    7.3773    8.8224   21.4870 C   0  0  0  0  0  0  0  0  0  0  0  0
    8.4391    6.6439   21.0235 C   0  0  0  0  0  0  0  0  0  0  0  0
    9.6494   11.1353   20.4167 C   0  0  0  0  0  0  0  0  0  0  0  0
    8.1431    7.6829   21.9046 C   0  0  0  0  0  0  0  0  0  0  0  0
    7.7796   10.1314   21.5115 N   0  0  0  0  0  0  0  0  0  0  0  0
    9.2768    5.6183   21.4437 C   0  0  0  0  0  0  0  0  0  0  0  0
    8.6315    7.7322   23.1768 C   0  0  0  0  0  0  0  0  0  0  0  0
   13.0537    9.9821   20.5781 C   0  0  0  0  0  0  0  0  0  0  0  0
   10.3850    4.6575   23.2386 O   0  0  0  0  0  0  0  0  0  0  0  0
    4.2069    6.8450   20.7994 C   0  0  0  0  0  0  0  0  0  0  0  0
    3.0726   10.1043   19.8522 O   0  0  0  0  0  0  0  0  0  0  0  0
    5.5057    7.1196   21.1155 C   0  0  0  0  0  0  0  0  0  0  0  0
    7.0367   11.0229   21.9948 O   0  0  0  0  0  0  0  0  0  0  0  0
  1  8  4  0
  1 12  4  0
  2  9  1  0
  2 11  4  0
  2 25  4  0
  3 12  4  0
  3 14  1  0
  3 23  4  0
  4 13  4  0
  4 21  4  0
  4 24  1  0
  5  8  4  0
  5 23  4  0
  6 18  2  0
  7 15  4  0
  7 16  1  0
  7 27  4  0
  8 18  1  0
 10 18  1  0
 10 20  1  0
 11 15  4  0
 11 26  1  0
 13 22  4  0
 16 19  1  0
 16 20  2  0
 17 19  4  0
 17 21  4  0
 19 22  4  0
 20 28  1  0
 25 27  4  0
M  END
$$$$

 Created by Python create_sdf_string function

 28 30  0  0  0  0  0  0  0  0999 V2000
   11.4592   11.2893   18.7941 C   0  0  0  0  0  0  0  0  0  0  0  0
    3.4202    7.9009   20.3866 C   0  0  0  0  0  0  0  0  0  0  0  0
   13.5280   10.3522   19.3586 C   0  0  0  0  0  0  0  0  0  0  0  0
    9.6923    5.6468   22.7891 C   0  0  0  0  0  0  0  0  0  0  0  0
   11.7756   10.2554   20.8841 N   0  0  0  0  0  0  0  0  0  0  0  0
    8.9876   11.9370   19.8757 O   0  0  0  0  0  0  0  0  0  0  0  0
    6.0167    8.4478   21.1089 C   0  0  0  0  0  0  0  0  0  0  0  0
   11.0002   10.8890   20.0262 C   0  0  0  0  0  0  0  0  0  0  0  0
    2.1721    7.7393   20.0315 O   0  0  0  0  0  0  0  0  0  0  0  0
    9.1107   10.3880   21.3769 N   0  0  0  0  0  0  0  0  0  0  0  0
    3.9102    9.2008   20.3124 C   0  0  0  0  0  0  0  0  0  0  0  0
   12.7292   10.9960   18.4597 C   0  0  0  0  0  0  0  0  0  0  0  0
    9.3798    6.6793   23.6625 C   0  0  0  0  0  0  0  0  0  0  0  0
   14.7425   10.0739   19.0802 O   0  0  0  0  0  0  0  0  0  0  0  0
    5.1894    9.4673   20.7118 C   0  0  0  0  0  0  0  0  0  0  0  0
    7.3773    8.8224   21.4870 C   0  0  0  0  0  0  0  0  0  0  0  0
    8.4391    6.6439   21.0235 C   0  0  0  0  0  0  0  0  0  0  0  0
    9.6494   11.1353   20.4167 C   0  0  0  0  0  0  0  0  0  0  0  0
    8.1431    7.6829   21.9046 C   0  0  0  0  0  0  0  0  0  0  0  0
    7.7796   10.1314   21.5115 N   0  0  0  0  0  0  0  0  0  0  0  0
    9.2768    5.6183   21.4437 C   0  0  0  0  0  0  0  0  0  0  0  0
    8.6315    7.7322   23.1768 C   0  0  0  0  0  0  0  0  0  0  0  0
   13.0537    9.9821   20.5781 C   0  0  0  0  0  0  0  0  0  0  0  0
   10.3850    4.6575   23.2386 O   0  0  0  0  0  0  0  0  0  0  0  0
    4.2069    6.8450   20.7994 C   0  0  0  0  0  0  0  0  0  0  0  0
    3.0726   10.1043   19.8522 O   0  0  0  0  0  0  0  0  0  0  0  0
    5.5057    7.1196   21.1155 C   0  0  0  0  0  0  0  0  0  0  0  0
    7.0367   11.0229   21.9948 O   0  0  0  0  0  0  0  0  0  0  0  0
  1  8  4  0
  1 12  4  0
  2  9  1  0
  2 11  4  0
  2 25  4  0
  3 12  4  0
  3 14  1  0
  3 23  4  0
  4 13  4  0
  4 21  4  0
  4 24  1  0
  5  8  4  0
  5 23  4  0
  6 18  2  0
  7 15  4  0
  7 16  1  0
  7 27  4  0
  8 18  1  0
 10 18  1  0
 10 20  1  0
 11 15  4  0
 11 26  1  0
 13 22  4  0
 16 19  1  0
 16 20  2  0
 17 19  4  0
 17 21  4  0
 19 22  4  0
 20 28  1  0
 25 27  4  0
M  END
$$$$

 Created by Python create_sdf_string function

 28 30  0  0  0  0  0  0  0  0999 V2000
   11.4592   11.2893   18.7941 C   0  0  0  0  0  0  0  0  0  0  0  0
    3.4202    7.9009   20.3866 C   0  0  0  0  0  0  0  0  0  0  0  0
   13.5280   10.3522   19.3586 C   0  0  0  0  0  0  0  0  0  0  0  0
    9.6923    5.6468   22.7891 C   0  0  0  0  0  0  0  0  0  0  0  0
   11.7756   10.2554   20.8841 N   0  0  0  0  0  0  0  0  0  0  0  0
    8.9876   11.9370   19.8757 O   0  0  0  0  0  0  0  0  0  0  0  0
    6.0167    8.4478   21.1089 C   0  0  0  0  0  0  0  0  0  0  0  0
   11.0002   10.8890   20.0262 C   0  0  0  0  0  0  0  0  0  0  0  0
    2.1721    7.7393   20.0315 O   0  0  0  0  0  0  0  0  0  0  0  0
    9.1107   10.3880   21.3769 N   0  0  0  0  0  0  0  0  0  0  0  0
    3.9102    9.2008   20.3124 C   0  0  0  0  0  0  0  0  0  0  0  0
   12.7292   10.9960   18.4597 C   0  0  0  0  0  0  0  0  0  0  0  0
    9.3798    6.6793   23.6625 C   0  0  0  0  0  0  0  0  0  0  0  0
   14.7425   10.0739   19.0802 O   0  0  0  0  0  0  0  0  0  0  0  0
    5.1894    9.4673   20.7118 C   0  0  0  0  0  0  0  0  0  0  0  0
    7.3773    8.8224   21.4870 C   0  0  0  0  0  0  0  0  0  0  0  0
    8.4391    6.6439   21.0235 C   0  0  0  0  0  0  0  0  0  0  0  0
    9.6494   11.1353   20.4167 C   0  0  0  0  0  0  0  0  0  0  0  0
    8.1431    7.6829   21.9046 C   0  0  0  0  0  0  0  0  0  0  0  0
    7.7796   10.1314   21.5115 N   0  0  0  0  0  0  0  0  0  0  0  0
    9.2768    5.6183   21.4437 C   0  0  0  0  0  0  0  0  0  0  0  0
    8.6315    7.7322   23.1768 C   0  0  0  0  0  0  0  0  0  0  0  0
   13.0537    9.9821   20.5781 C   0  0  0  0  0  0  0  0  0  0  0  0
   10.3850    4.6575   23.2386 O   0  0  0  0  0  0  0  0  0  0  0  0
    4.2069    6.8450   20.7994 C   0  0  0  0  0  0  0  0  0  0  0  0
    3.0726   10.1043   19.8522 O   0  0  0  0  0  0  0  0  0  0  0  0
    5.5057    7.1196   21.1155 C   0  0  0  0  0  0  0  0  0  0  0  0
    7.0367   11.0229   21.9948 O   0  0  0  0  0  0  0  0  0  0  0  0
  1  8  4  0
  1 12  4  0
  2  9  1  0
  2 11  4  0
  2 25  4  0
  3 12  4  0
  3 14  1  0
  3 23  4  0
  4 13  4  0
  4 21  4  0
  4 24  1  0
  5  8  4  0
  5 23  4  0
  6 18  2  0
  7 15  4  0
  7 16  1  0
  7 27  4  0
  8 18  1  0
 10 18  1  0
 10 20  1  0
 11 15  4  0
 11 26  1  0
 13 22  4  0
 16 19  1  0
 16 20  2  0
 17 19  4  0
 17 21  4  0
 19 22  4  0
 20 28  1  0
 25 27  4  0
M  END
$$$$

 Created by Python create_sdf_string function

 28 30  0  0  0  0  0  0  0  0999 V2000
   11.4592   11.2893   18.7941 C   0  0  0  0  0  0  0  0  0  0  0  0
    3.4202    7.9009   20.3866 C   0  0  0  0  0  0  0  0  0  0  0  0
   13.5280   10.3522   19.3586 C   0  0  0  0  0  0  0  0  0  0  0  0
    9.6923    5.6468   22.7891 C   0  0  0  0  0  0  0  0  0  0  0  0
   11.7756   10.2554   20.8841 N   0  0  0  0  0  0  0  0  0  0  0  0
    8.9876   11.9370   19.8757 O   0  0  0  0  0  0  0  0  0  0  0  0
    6.0167    8.4478   21.1089 C   0  0  0  0  0  0  0  0  0  0  0  0
   11.0002   10.8890   20.0262 C   0  0  0  0  0  0  0  0  0  0  0  0
    2.1721    7.7393   20.0315 O   0  0  0  0  0  0  0  0  0  0  0  0
    9.1107   10.3880   21.3769 N   0  0  0  0  0  0  0  0  0  0  0  0
    3.9102    9.2008   20.3124 C   0  0  0  0  0  0  0  0  0  0  0  0
   12.7292   10.9960   18.4597 C   0  0  0  0  0  0  0  0  0  0  0  0
    9.3798    6.6793   23.6625 C   0  0  0  0  0  0  0  0  0  0  0  0
   14.7425   10.0739   19.0802 O   0  0  0  0  0  0  0  0  0  0  0  0
    5.1894    9.4673   20.7118 C   0  0  0  0  0  0  0  0  0  0  0  0
    7.3773    8.8224   21.4870 C   0  0  0  0  0  0  0  0  0  0  0  0
    8.4391    6.6439   21.0235 C   0  0  0  0  0  0  0  0  0  0  0  0
    9.6494   11.1353   20.4167 C   0  0  0  0  0  0  0  0  0  0  0  0
    8.1431    7.6829   21.9046 C   0  0  0  0  0  0  0  0  0  0  0  0
    7.7796   10.1314   21.5115 N   0  0  0  0  0  0  0  0  0  0  0  0
    9.2768    5.6183   21.4437 C   0  0  0  0  0  0  0  0  0  0  0  0
    8.6315    7.7322   23.1768 C   0  0  0  0  0  0  0  0  0  0  0  0
   13.0537    9.9821   20.5781 C   0  0  0  0  0  0  0  0  0  0  0  0
   10.3850    4.6575   23.2386 O   0  0  0  0  0  0  0  0  0  0  0  0
    4.2069    6.8450   20.7994 C   0  0  0  0  0  0  0  0  0  0  0  0
    3.0726   10.1043   19.8522 O   0  0  0  0  0  0  0  0  0  0  0  0
    5.5057    7.1196   21.1155 C   0  0  0  0  0  0  0  0  0  0  0  0
    7.0367   11.0229   21.9948 O   0  0  0  0  0  0  0  0  0  0  0  0
  1  8  4  0
  1 12  4  0
  2  9  1  0
  2 11  4  0
  2 25  4  0
  3 12  4  0
  3 14  1  0
  3 23  4  0
  4 13  4  0
  4 21  4  0
  4 24  1  0
  5  8  4  0
  5 23  4  0
  6 18  2  0
  7 15  4  0
  7 16  1  0
  7 27  4  0
  8 18  1  0
 10 18  1  0
 10 20  1  0
 11 15  4  0
 11 26  1  0
 13 22  4  0
 16 19  1  0
 16 20  2  0
 17 19  4  0
 17 21  4  0
 19 22  4  0
 20 28  1  0
 25 27  4  0
M  END
$$$$

 Created by Python create_sdf_string function

 28 30  0  0  0  0  0  0  0  0999 V2000
   11.4592   11.2893   18.7941 C   0  0  0  0  0  0  0  0  0  0  0  0
    3.4202    7.9009   20.3866 C   0  0  0  0  0  0  0  0  0  0  0  0
   13.5280   10.3522   19.3586 C   0  0  0  0  0  0  0  0  0  0  0  0
    9.6923    5.6468   22.7891 C   0  0  0  0  0  0  0  0  0  0  0  0
   11.7756   10.2554   20.8841 N   0  0  0  0  0  0  0  0  0  0  0  0
    8.9876   11.9370   19.8757 O   0  0  0  0  0  0  0  0  0  0  0  0
    6.0167    8.4478   21.1089 C   0  0  0  0  0  0  0  0  0  0  0  0
   11.0002   10.8890   20.0262 C   0  0  0  0  0  0  0  0  0  0  0  0
    2.1721    7.7393   20.0315 O   0  0  0  0  0  0  0  0  0  0  0  0
    9.1107   10.3880   21.3769 N   0  0  0  0  0  0  0  0  0  0  0  0
    3.9102    9.2008   20.3124 C   0  0  0  0  0  0  0  0  0  0  0  0
   12.7292   10.9960   18.4597 C   0  0  0  0  0  0  0  0  0  0  0  0
    9.3798    6.6793   23.6625 C   0  0  0  0  0  0  0  0  0  0  0  0
   14.7425   10.0739   19.0802 O   0  0  0  0  0  0  0  0  0  0  0  0
    5.1894    9.4673   20.7118 C   0  0  0  0  0  0  0  0  0  0  0  0
    7.3773    8.8224   21.4870 C   0  0  0  0  0  0  0  0  0  0  0  0
    8.4391    6.6439   21.0235 C   0  0  0  0  0  0  0  0  0  0  0  0
    9.6494   11.1353   20.4167 C   0  0  0  0  0  0  0  0  0  0  0  0
    8.1431    7.6829   21.9046 C   0  0  0  0  0  0  0  0  0  0  0  0
    7.7796   10.1314   21.5115 N   0  0  0  0  0  0  0  0  0  0  0  0
    9.2768    5.6183   21.4437 C   0  0  0  0  0  0  0  0  0  0  0  0
    8.6315    7.7322   23.1768 C   0  0  0  0  0  0  0  0  0  0  0  0
   13.0537    9.9821   20.5781 C   0  0  0  0  0  0  0  0  0  0  0  0
   10.3850    4.6575   23.2386 O   0  0  0  0  0  0  0  0  0  0  0  0
    4.2069    6.8450   20.7994 C   0  0  0  0  0  0  0  0  0  0  0  0
    3.0726   10.1043   19.8522 O   0  0  0  0  0  0  0  0  0  0  0  0
    5.5057    7.1196   21.1155 C   0  0  0  0  0  0  0  0  0  0  0  0
    7.0367   11.0229   21.9948 O   0  0  0  0  0  0  0  0  0  0  0  0
  1  8  4  0
  1 12  4  0
  2  9  1  0
  2 11  4  0
  2 25  4  0
  3 12  4  0
  3 14  1  0
  3 23  4  0
  4 13  4  0
  4 21  4  0
  4 24  1  0
  5  8  4  0
  5 23  4  0
  6 18  2  0
  7 15  4  0
  7 16  1  0
  7 27  4  0
  8 18  1  0
 10 18  1  0
 10 20  1  0
 11 15  4  0
 11 26  1  0
 13 22  4  0
 16 19  1  0
 16 20  2  0
 17 19  4  0
 17 21  4  0
 19 22  4  0
 20 28  1  0
 25 27  4  0
M  END
$$$$

 Created by Python create_sdf_string function

 28 30  0  0  0  0  0  0  0  0999 V2000
   11.4592   11.2893   18.7941 C   0  0  0  0  0  0  0  0  0  0  0  0
    3.4202    7.9009   20.3866 C   0  0  0  0  0  0  0  0  0  0  0  0
   13.5280   10.3522   19.3586 C   0  0  0  0  0  0  0  0  0  0  0  0
    9.6923    5.6468   22.7891 C   0  0  0  0  0  0  0  0  0  0  0  0
   11.7756   10.2554   20.8841 N   0  0  0  0  0  0  0  0  0  0  0  0
    8.9876   11.9370   19.8757 O   0  0  0  0  0  0  0  0  0  0  0  0
    6.0167    8.4478   21.1089 C   0  0  0  0  0  0  0  0  0  0  0  0
   11.0002   10.8890   20.0262 C   0  0  0  0  0  0  0  0  0  0  0  0
    2.1721    7.7393   20.0315 O   0  0  0  0  0  0  0  0  0  0  0  0
    9.1107   10.3880   21.3769 N   0  0  0  0  0  0  0  0  0  0  0  0
    3.9102    9.2008   20.3124 C   0  0  0  0  0  0  0  0  0  0  0  0
   12.7292   10.9960   18.4597 C   0  0  0  0  0  0  0  0  0  0  0  0
    9.3798    6.6793   23.6625 C   0  0  0  0  0  0  0  0  0  0  0  0
   14.7425   10.0739   19.0802 O   0  0  0  0  0  0  0  0  0  0  0  0
    5.1894    9.4673   20.7118 C   0  0  0  0  0  0  0  0  0  0  0  0
    7.3773    8.8224   21.4870 C   0  0  0  0  0  0  0  0  0  0  0  0
    8.4391    6.6439   21.0235 C   0  0  0  0  0  0  0  0  0  0  0  0
    9.6494   11.1353   20.4167 C   0  0  0  0  0  0  0  0  0  0  0  0
    8.1431    7.6829   21.9046 C   0  0  0  0  0  0  0  0  0  0  0  0
    7.7796   10.1314   21.5115 N   0  0  0  0  0  0  0  0  0  0  0  0
    9.2768    5.6183   21.4437 C   0  0  0  0  0  0  0  0  0  0  0  0
    8.6315    7.7322   23.1768 C   0  0  0  0  0  0  0  0  0  0  0  0
   13.0537    9.9821   20.5781 C   0  0  0  0  0  0  0  0  0  0  0  0
   10.3850    4.6575   23.2386 O   0  0  0  0  0  0  0  0  0  0  0  0
    4.2069    6.8450   20.7994 C   0  0  0  0  0  0  0  0  0  0  0  0
    3.0726   10.1043   19.8522 O   0  0  0  0  0  0  0  0  0  0  0  0
    5.5057    7.1196   21.1155 C   0  0  0  0  0  0  0  0  0  0  0  0
    7.0367   11.0229   21.9948 O   0  0  0  0  0  0  0  0  0  0  0  0
  1  8  4  0
  1 12  4  0
  2  9  1  0
  2 11  4  0
  2 25  4  0
  3 12  4  0
  3 14  1  0
  3 23  4  0
  4 13  4  0
  4 21  4  0
  4 24  1  0
  5  8  4  0
  5 23  4  0
  6 18  2  0
  7 15  4  0
  7 16  1  0
  7 27  4  0
  8 18  1  0
 10 18  1  0
 10 20  1  0
 11 15  4  0
 11 26  1  0
 13 22  4  0
 16 19  1  0
 16 20  2  0
 17 19  4  0
 17 21  4  0
 19 22  4  0
 20 28  1  0
 25 27  4  0
M  END
$$$$

 Created by Python create_sdf_string function

 28 30  0  0  0  0  0  0  0  0999 V2000
   11.4592   11.2893   18.7941 C   0  0  0  0  0  0  0  0  0  0  0  0
    3.4202    7.9009   20.3866 C   0  0  0  0  0  0  0  0  0  0  0  0
   13.5280   10.3522   19.3586 C   0  0  0  0  0  0  0  0  0  0  0  0
    9.6923    5.6468   22.7891 C   0  0  0  0  0  0  0  0  0  0  0  0
   11.7756   10.2554   20.8841 N   0  0  0  0  0  0  0  0  0  0  0  0
    8.9876   11.9370   19.8757 O   0  0  0  0  0  0  0  0  0  0  0  0
    6.0167    8.4478   21.1089 C   0  0  0  0  0  0  0  0  0  0  0  0
   11.0002   10.8890   20.0262 C   0  0  0  0  0  0  0  0  0  0  0  0
    2.1721    7.7393   20.0315 O   0  0  0  0  0  0  0  0  0  0  0  0
    9.1107   10.3880   21.3769 N   0  0  0  0  0  0  0  0  0  0  0  0
    3.9102    9.2008   20.3124 C   0  0  0  0  0  0  0  0  0  0  0  0
   12.7292   10.9960   18.4597 C   0  0  0  0  0  0  0  0  0  0  0  0
    9.3798    6.6793   23.6625 C   0  0  0  0  0  0  0  0  0  0  0  0
   14.7425   10.0739   19.0802 O   0  0  0  0  0  0  0  0  0  0  0  0
    5.1894    9.4673   20.7118 C   0  0  0  0  0  0  0  0  0  0  0  0
    7.3773    8.8224   21.4870 C   0  0  0  0  0  0  0  0  0  0  0  0
    8.4391    6.6439   21.0235 C   0  0  0  0  0  0  0  0  0  0  0  0
    9.6494   11.1353   20.4167 C   0  0  0  0  0  0  0  0  0  0  0  0
    8.1431    7.6829   21.9046 C   0  0  0  0  0  0  0  0  0  0  0  0
    7.7796   10.1314   21.5115 N   0  0  0  0  0  0  0  0  0  0  0  0
    9.2768    5.6183   21.4437 C   0  0  0  0  0  0  0  0  0  0  0  0
    8.6315    7.7322   23.1768 C   0  0  0  0  0  0  0  0  0  0  0  0
   13.0537    9.9821   20.5781 C   0  0  0  0  0  0  0  0  0  0  0  0
   10.3850    4.6575   23.2386 O   0  0  0  0  0  0  0  0  0  0  0  0
    4.2069    6.8450   20.7994 C   0  0  0  0  0  0  0  0  0  0  0  0
    3.0726   10.1043   19.8522 O   0  0  0  0  0  0  0  0  0  0  0  0
    5.5057    7.1196   21.1155 C   0  0  0  0  0  0  0  0  0  0  0  0
    7.0367   11.0229   21.9948 O   0  0  0  0  0  0  0  0  0  0  0  0
  1  8  4  0
  1 12  4  0
  2  9  1  0
  2 11  4  0
  2 25  4  0
  3 12  4  0
  3 14  1  0
  3 23  4  0
  4 13  4  0
  4 21  4  0
  4 24  1  0
  5  8  4  0
  5 23  4  0
  6 18  2  0
  7 15  4  0
  7 16  1  0
  7 27  4  0
  8 18  1  0
 10 18  1  0
 10 20  1  0
 11 15  4  0
 11 26  1  0
 13 22  4  0
 16 19  1  0
 16 20  2  0
 17 19  4  0
 17 21  4  0
 19 22  4  0
 20 28  1  0
 25 27  4  0
M  END
$$$$

 Created by Python create_sdf_string function

 28 30  0  0  0  0  0  0  0  0999 V2000
   11.4592   11.2893   18.7941 C   0  0  0  0  0  0  0  0  0  0  0  0
    3.4202    7.9009   20.3866 C   0  0  0  0  0  0  0  0  0  0  0  0
   13.5280   10.3522   19.3586 C   0  0  0  0  0  0  0  0  0  0  0  0
    9.6923    5.6468   22.7891 C   0  0  0  0  0  0  0  0  0  0  0  0
   11.7756   10.2554   20.8841 N   0  0  0  0  0  0  0  0  0  0  0  0
    8.9876   11.9370   19.8757 O   0  0  0  0  0  0  0  0  0  0  0  0
    6.0167    8.4478   21.1089 C   0  0  0  0  0  0  0  0  0  0  0  0
   11.0002   10.8890   20.0262 C   0  0  0  0  0  0  0  0  0  0  0  0
    2.1721    7.7393   20.0315 O   0  0  0  0  0  0  0  0  0  0  0  0
    9.1107   10.3880   21.3769 N   0  0  0  0  0  0  0  0  0  0  0  0
    3.9102    9.2008   20.3124 C   0  0  0  0  0  0  0  0  0  0  0  0
   12.7292   10.9960   18.4597 C   0  0  0  0  0  0  0  0  0  0  0  0
    9.3798    6.6793   23.6625 C   0  0  0  0  0  0  0  0  0  0  0  0
   14.7425   10.0739   19.0802 O   0  0  0  0  0  0  0  0  0  0  0  0
    5.1894    9.4673   20.7118 C   0  0  0  0  0  0  0  0  0  0  0  0
    7.3773    8.8224   21.4870 C   0  0  0  0  0  0  0  0  0  0  0  0
    8.4391    6.6439   21.0235 C   0  0  0  0  0  0  0  0  0  0  0  0
    9.6494   11.1353   20.4167 C   0  0  0  0  0  0  0  0  0  0  0  0
    8.1431    7.6829   21.9046 C   0  0  0  0  0  0  0  0  0  0  0  0
    7.7796   10.1314   21.5115 N   0  0  0  0  0  0  0  0  0  0  0  0
    9.2768    5.6183   21.4437 C   0  0  0  0  0  0  0  0  0  0  0  0
    8.6315    7.7322   23.1768 C   0  0  0  0  0  0  0  0  0  0  0  0
   13.0537    9.9821   20.5781 C   0  0  0  0  0  0  0  0  0  0  0  0
   10.3850    4.6575   23.2386 O   0  0  0  0  0  0  0  0  0  0  0  0
    4.2069    6.8450   20.7994 C   0  0  0  0  0  0  0  0  0  0  0  0
    3.0726   10.1043   19.8522 O   0  0  0  0  0  0  0  0  0  0  0  0
    5.5057    7.1196   21.1155 C   0  0  0  0  0  0  0  0  0  0  0  0
    7.0367   11.0229   21.9948 O   0  0  0  0  0  0  0  0  0  0  0  0
  1  8  4  0
  1 12  4  0
  2  9  1  0
  2 11  4  0
  2 25  4  0
  3 12  4  0
  3 14  1  0
  3 23  4  0
  4 13  4  0
  4 21  4  0
  4 24  1  0
  5  8  4  0
  5 23  4  0
  6 18  2  0
  7 15  4  0
  7 16  1  0
  7 27  4  0
  8 18  1  0
 10 18  1  0
 10 20  1  0
 11 15  4  0
 11 26  1  0
 13 22  4  0
 16 19  1  0
 16 20  2  0
 17 19  4  0
 17 21  4  0
 19 22  4  0
 20 28  1  0
 25 27  4  0
M  END
$$$$

 Created by Python create_sdf_string function

 28 30  0  0  0  0  0  0  0  0999 V2000
   11.4592   11.2893   18.7941 C   0  0  0  0  0  0  0  0  0  0  0  0
    3.4202    7.9009   20.3866 C   0  0  0  0  0  0  0  0  0  0  0  0
   13.5280   10.3522   19.3586 C   0  0  0  0  0  0  0  0  0  0  0  0
    9.6923    5.6468   22.7891 C   0  0  0  0  0  0  0  0  0  0  0  0
   11.7756   10.2554   20.8841 N   0  0  0  0  0  0  0  0  0  0  0  0
    8.9876   11.9370   19.8757 O   0  0  0  0  0  0  0  0  0  0  0  0
    6.0167    8.4478   21.1089 C   0  0  0  0  0  0  0  0  0  0  0  0
   11.0002   10.8890   20.0262 C   0  0  0  0  0  0  0  0  0  0  0  0
    2.1721    7.7393   20.0315 O   0  0  0  0  0  0  0  0  0  0  0  0
    9.1107   10.3880   21.3769 N   0  0  0  0  0  0  0  0  0  0  0  0
    3.9102    9.2008   20.3124 C   0  0  0  0  0  0  0  0  0  0  0  0
   12.7292   10.9960   18.4597 C   0  0  0  0  0  0  0  0  0  0  0  0
    9.3798    6.6793   23.6625 C   0  0  0  0  0  0  0  0  0  0  0  0
   14.7425   10.0739   19.0802 O   0  0  0  0  0  0  0  0  0  0  0  0
    5.1894    9.4673   20.7118 C   0  0  0  0  0  0  0  0  0  0  0  0
    7.3773    8.8224   21.4870 C   0  0  0  0  0  0  0  0  0  0  0  0
    8.4391    6.6439   21.0235 C   0  0  0  0  0  0  0  0  0  0  0  0
    9.6494   11.1353   20.4167 C   0  0  0  0  0  0  0  0  0  0  0  0
    8.1431    7.6829   21.9046 C   0  0  0  0  0  0  0  0  0  0  0  0
    7.7796   10.1314   21.5115 N   0  0  0  0  0  0  0  0  0  0  0  0
    9.2768    5.6183   21.4437 C   0  0  0  0  0  0  0  0  0  0  0  0
    8.6315    7.7322   23.1768 C   0  0  0  0  0  0  0  0  0  0  0  0
   13.0537    9.9821   20.5781 C   0  0  0  0  0  0  0  0  0  0  0  0
   10.3850    4.6575   23.2386 O   0  0  0  0  0  0  0  0  0  0  0  0
    4.2069    6.8450   20.7994 C   0  0  0  0  0  0  0  0  0  0  0  0
    3.0726   10.1043   19.8522 O   0  0  0  0  0  0  0  0  0  0  0  0
    5.5057    7.1196   21.1155 C   0  0  0  0  0  0  0  0  0  0  0  0
    7.0367   11.0229   21.9948 O   0  0  0  0  0  0  0  0  0  0  0  0
  1  8  4  0
  1 12  4  0
  2  9  1  0
  2 11  4  0
  2 25  4  0
  3 12  4  0
  3 14  1  0
  3 23  4  0
  4 13  4  0
  4 21  4  0
  4 24  1  0
  5  8  4  0
  5 23  4  0
  6 18  2  0
  7 15  4  0
  7 16  1  0
  7 27  4  0
  8 18  1  0
 10 18  1  0
 10 20  1  0
 11 15  4  0
 11 26  1  0
 13 22  4  0
 16 19  1  0
 16 20  2  0
 17 19  4  0
 17 21  4  0
 19 22  4  0
 20 28  1  0
 25 27  4  0
M  END
$$$$

 Created by Python create_sdf_string function

 28 30  0  0  0  0  0  0  0  0999 V2000
   11.4592   11.2893   18.7941 C   0  0  0  0  0  0  0  0  0  0  0  0
    3.4202    7.9009   20.3866 C   0  0  0  0  0  0  0  0  0  0  0  0
   13.5280   10.3522   19.3586 C   0  0  0  0  0  0  0  0  0  0  0  0
    9.6923    5.6468   22.7891 C   0  0  0  0  0  0  0  0  0  0  0  0
   11.7756   10.2554   20.8841 N   0  0  0  0  0  0  0  0  0  0  0  0
    8.9876   11.9370   19.8757 O   0  0  0  0  0  0  0  0  0  0  0  0
    6.0167    8.4478   21.1089 C   0  0  0  0  0  0  0  0  0  0  0  0
   11.0002   10.8890   20.0262 C   0  0  0  0  0  0  0  0  0  0  0  0
    2.1721    7.7393   20.0315 O   0  0  0  0  0  0  0  0  0  0  0  0
    9.1107   10.3880   21.3769 N   0  0  0  0  0  0  0  0  0  0  0  0
    3.9102    9.2008   20.3124 C   0  0  0  0  0  0  0  0  0  0  0  0
   12.7292   10.9960   18.4597 C   0  0  0  0  0  0  0  0  0  0  0  0
    9.3798    6.6793   23.6625 C   0  0  0  0  0  0  0  0  0  0  0  0
   14.7425   10.0739   19.0802 O   0  0  0  0  0  0  0  0  0  0  0  0
    5.1894    9.4673   20.7118 C   0  0  0  0  0  0  0  0  0  0  0  0
    7.3773    8.8224   21.4870 C   0  0  0  0  0  0  0  0  0  0  0  0
    8.4391    6.6439   21.0235 C   0  0  0  0  0  0  0  0  0  0  0  0
    9.6494   11.1353   20.4167 C   0  0  0  0  0  0  0  0  0  0  0  0
    8.1431    7.6829   21.9046 C   0  0  0  0  0  0  0  0  0  0  0  0
    7.7796   10.1314   21.5115 N   0  0  0  0  0  0  0  0  0  0  0  0
    9.2768    5.6183   21.4437 C   0  0  0  0  0  0  0  0  0  0  0  0
    8.6315    7.7322   23.1768 C   0  0  0  0  0  0  0  0  0  0  0  0
   13.0537    9.9821   20.5781 C   0  0  0  0  0  0  0  0  0  0  0  0
   10.3850    4.6575   23.2386 O   0  0  0  0  0  0  0  0  0  0  0  0
    4.2069    6.8450   20.7994 C   0  0  0  0  0  0  0  0  0  0  0  0
    3.0726   10.1043   19.8522 O   0  0  0  0  0  0  0  0  0  0  0  0
    5.5057    7.1196   21.1155 C   0  0  0  0  0  0  0  0  0  0  0  0
    7.0367   11.0229   21.9948 O   0  0  0  0  0  0  0  0  0  0  0  0
  1  8  4  0
  1 12  4  0
  2  9  1  0
  2 11  4  0
  2 25  4  0
  3 12  4  0
  3 14  1  0
  3 23  4  0
  4 13  4  0
  4 21  4  0
  4 24  1  0
  5  8  4  0
  5 23  4  0
  6 18  2  0
  7 15  4  0
  7 16  1  0
  7 27  4  0
  8 18  1  0
 10 18  1  0
 10 20  1  0
 11 15  4  0
 11 26  1  0
 13 22  4  0
 16 19  1  0
 16 20  2  0
 17 19  4  0
 17 21  4  0
 19 22  4  0
 20 28  1  0
 25 27  4  0
M  END
$$$$

 Created by Python create_sdf_string function

 28 30  0  0  0  0  0  0  0  0999 V2000
   11.4592   11.2893   18.7941 C   0  0  0  0  0  0  0  0  0  0  0  0
    3.4202    7.9009   20.3866 C   0  0  0  0  0  0  0  0  0  0  0  0
   13.5280   10.3522   19.3586 C   0  0  0  0  0  0  0  0  0  0  0  0
    9.6923    5.6468   22.7891 C   0  0  0  0  0  0  0  0  0  0  0  0
   11.7756   10.2554   20.8841 N   0  0  0  0  0  0  0  0  0  0  0  0
    8.9876   11.9370   19.8757 O   0  0  0  0  0  0  0  0  0  0  0  0
    6.0167    8.4478   21.1089 C   0  0  0  0  0  0  0  0  0  0  0  0
   11.0002   10.8890   20.0262 C   0  0  0  0  0  0  0  0  0  0  0  0
    2.1721    7.7393   20.0315 O   0  0  0  0  0  0  0  0  0  0  0  0
    9.1107   10.3880   21.3769 N   0  0  0  0  0  0  0  0  0  0  0  0
    3.9102    9.2008   20.3124 C   0  0  0  0  0  0  0  0  0  0  0  0
   12.7292   10.9960   18.4597 C   0  0  0  0  0  0  0  0  0  0  0  0
    9.3798    6.6793   23.6625 C   0  0  0  0  0  0  0  0  0  0  0  0
   14.7425   10.0739   19.0802 O   0  0  0  0  0  0  0  0  0  0  0  0
    5.1894    9.4673   20.7118 C   0  0  0  0  0  0  0  0  0  0  0  0
    7.3773    8.8224   21.4870 C   0  0  0  0  0  0  0  0  0  0  0  0
    8.4391    6.6439   21.0235 C   0  0  0  0  0  0  0  0  0  0  0  0
    9.6494   11.1353   20.4167 C   0  0  0  0  0  0  0  0  0  0  0  0
    8.1431    7.6829   21.9046 C   0  0  0  0  0  0  0  0  0  0  0  0
    7.7796   10.1314   21.5115 N   0  0  0  0  0  0  0  0  0  0  0  0
    9.2768    5.6183   21.4437 C   0  0  0  0  0  0  0  0  0  0  0  0
    8.6315    7.7322   23.1768 C   0  0  0  0  0  0  0  0  0  0  0  0
   13.0537    9.9821   20.5781 C   0  0  0  0  0  0  0  0  0  0  0  0
   10.3850    4.6575   23.2386 O   0  0  0  0  0  0  0  0  0  0  0  0
    4.2069    6.8450   20.7994 C   0  0  0  0  0  0  0  0  0  0  0  0
    3.0726   10.1043   19.8522 O   0  0  0  0  0  0  0  0  0  0  0  0
    5.5057    7.1196   21.1155 C   0  0  0  0  0  0  0  0  0  0  0  0
    7.0367   11.0229   21.9948 O   0  0  0  0  0  0  0  0  0  0  0  0
  1  8  4  0
  1 12  4  0
  2  9  1  0
  2 11  4  0
  2 25  4  0
  3 12  4  0
  3 14  1  0
  3 23  4  0
  4 13  4  0
  4 21  4  0
  4 24  1  0
  5  8  4  0
  5 23  4  0
  6 18  2  0
  7 15  4  0
  7 16  1  0
  7 27  4  0
  8 18  1  0
 10 18  1  0
 10 20  1  0
 11 15  4  0
 11 26  1  0
 13 22  4  0
 16 19  1  0
 16 20  2  0
 17 19  4  0
 17 21  4  0
 19 22  4  0
 20 28  1  0
 25 27  4  0
M  END
$$$$

 Created by Python create_sdf_string function

 28 30  0  0  0  0  0  0  0  0999 V2000
   11.4592   11.2893   18.7941 C   0  0  0  0  0  0  0  0  0  0  0  0
    3.4202    7.9009   20.3866 C   0  0  0  0  0  0  0  0  0  0  0  0
   13.5280   10.3522   19.3586 C   0  0  0  0  0  0  0  0  0  0  0  0
    9.6923    5.6468   22.7891 C   0  0  0  0  0  0  0  0  0  0  0  0
   11.7756   10.2554   20.8841 N   0  0  0  0  0  0  0  0  0  0  0  0
    8.9876   11.9370   19.8757 O   0  0  0  0  0  0  0  0  0  0  0  0
    6.0167    8.4478   21.1089 C   0  0  0  0  0  0  0  0  0  0  0  0
   11.0002   10.8890   20.0262 C   0  0  0  0  0  0  0  0  0  0  0  0
    2.1721    7.7393   20.0315 O   0  0  0  0  0  0  0  0  0  0  0  0
    9.1107   10.3880   21.3769 N   0  0  0  0  0  0  0  0  0  0  0  0
    3.9102    9.2008   20.3124 C   0  0  0  0  0  0  0  0  0  0  0  0
   12.7292   10.9960   18.4597 C   0  0  0  0  0  0  0  0  0  0  0  0
    9.3798    6.6793   23.6625 C   0  0  0  0  0  0  0  0  0  0  0  0
   14.7425   10.0739   19.0802 O   0  0  0  0  0  0  0  0  0  0  0  0
    5.1894    9.4673   20.7118 C   0  0  0  0  0  0  0  0  0  0  0  0
    7.3773    8.8224   21.4870 C   0  0  0  0  0  0  0  0  0  0  0  0
    8.4391    6.6439   21.0235 C   0  0  0  0  0  0  0  0  0  0  0  0
    9.6494   11.1353   20.4167 C   0  0  0  0  0  0  0  0  0  0  0  0
    8.1431    7.6829   21.9046 C   0  0  0  0  0  0  0  0  0  0  0  0
    7.7796   10.1314   21.5115 N   0  0  0  0  0  0  0  0  0  0  0  0
    9.2768    5.6183   21.4437 C   0  0  0  0  0  0  0  0  0  0  0  0
    8.6315    7.7322   23.1768 C   0  0  0  0  0  0  0  0  0  0  0  0
   13.0537    9.9821   20.5781 C   0  0  0  0  0  0  0  0  0  0  0  0
   10.3850    4.6575   23.2386 O   0  0  0  0  0  0  0  0  0  0  0  0
    4.2069    6.8450   20.7994 C   0  0  0  0  0  0  0  0  0  0  0  0
    3.0726   10.1043   19.8522 O   0  0  0  0  0  0  0  0  0  0  0  0
    5.5057    7.1196   21.1155 C   0  0  0  0  0  0  0  0  0  0  0  0
    7.0367   11.0229   21.9948 O   0  0  0  0  0  0  0  0  0  0  0  0
  1  8  4  0
  1 12  4  0
  2  9  1  0
  2 11  4  0
  2 25  4  0
  3 12  4  0
  3 14  1  0
  3 23  4  0
  4 13  4  0
  4 21  4  0
  4 24  1  0
  5  8  4  0
  5 23  4  0
  6 18  2  0
  7 15  4  0
  7 16  1  0
  7 27  4  0
  8 18  1  0
 10 18  1  0
 10 20  1  0
 11 15  4  0
 11 26  1  0
 13 22  4  0
 16 19  1  0
 16 20  2  0
 17 19  4  0
 17 21  4  0
 19 22  4  0
 20 28  1  0
 25 27  4  0
M  END
$$$$

 Created by Python create_sdf_string function

 28 30  0  0  0  0  0  0  0  0999 V2000
   11.4592   11.2893   18.7941 C   0  0  0  0  0  0  0  0  0  0  0  0
    3.4202    7.9009   20.3866 C   0  0  0  0  0  0  0  0  0  0  0  0
   13.5280   10.3522   19.3586 C   0  0  0  0  0  0  0  0  0  0  0  0
    9.6923    5.6468   22.7891 C   0  0  0  0  0  0  0  0  0  0  0  0
   11.7756   10.2554   20.8841 N   0  0  0  0  0  0  0  0  0  0  0  0
    8.9876   11.9370   19.8757 O   0  0  0  0  0  0  0  0  0  0  0  0
    6.0167    8.4478   21.1089 C   0  0  0  0  0  0  0  0  0  0  0  0
   11.0002   10.8890   20.0262 C   0  0  0  0  0  0  0  0  0  0  0  0
    2.1721    7.7393   20.0315 O   0  0  0  0  0  0  0  0  0  0  0  0
    9.1107   10.3880   21.3769 N   0  0  0  0  0  0  0  0  0  0  0  0
    3.9102    9.2008   20.3124 C   0  0  0  0  0  0  0  0  0  0  0  0
   12.7292   10.9960   18.4597 C   0  0  0  0  0  0  0  0  0  0  0  0
    9.3798    6.6793   23.6625 C   0  0  0  0  0  0  0  0  0  0  0  0
   14.7425   10.0739   19.0802 O   0  0  0  0  0  0  0  0  0  0  0  0
    5.1894    9.4673   20.7118 C   0  0  0  0  0  0  0  0  0  0  0  0
    7.3773    8.8224   21.4870 C   0  0  0  0  0  0  0  0  0  0  0  0
    8.4391    6.6439   21.0235 C   0  0  0  0  0  0  0  0  0  0  0  0
    9.6494   11.1353   20.4167 C   0  0  0  0  0  0  0  0  0  0  0  0
    8.1431    7.6829   21.9046 C   0  0  0  0  0  0  0  0  0  0  0  0
    7.7796   10.1314   21.5115 N   0  0  0  0  0  0  0  0  0  0  0  0
    9.2768    5.6183   21.4437 C   0  0  0  0  0  0  0  0  0  0  0  0
    8.6315    7.7322   23.1768 C   0  0  0  0  0  0  0  0  0  0  0  0
   13.0537    9.9821   20.5781 C   0  0  0  0  0  0  0  0  0  0  0  0
   10.3850    4.6575   23.2386 O   0  0  0  0  0  0  0  0  0  0  0  0
    4.2069    6.8450   20.7994 C   0  0  0  0  0  0  0  0  0  0  0  0
    3.0726   10.1043   19.8522 O   0  0  0  0  0  0  0  0  0  0  0  0
    5.5057    7.1196   21.1155 C   0  0  0  0  0  0  0  0  0  0  0  0
    7.0367   11.0229   21.9948 O   0  0  0  0  0  0  0  0  0  0  0  0
  1  8  4  0
  1 12  4  0
  2  9  1  0
  2 11  4  0
  2 25  4  0
  3 12  4  0
  3 14  1  0
  3 23  4  0
  4 13  4  0
  4 21  4  0
  4 24  1  0
  5  8  4  0
  5 23  4  0
  6 18  2  0
  7 15  4  0
  7 16  1  0
  7 27  4  0
  8 18  1  0
 10 18  1  0
 10 20  1  0
 11 15  4  0
 11 26  1  0
 13 22  4  0
 16 19  1  0
 16 20  2  0
 17 19  4  0
 17 21  4  0
 19 22  4  0
 20 28  1  0
 25 27  4  0
M  END
$$$$

 Created by Python create_sdf_string function

 28 30  0  0  0  0  0  0  0  0999 V2000
   11.4592   11.2893   18.7941 C   0  0  0  0  0  0  0  0  0  0  0  0
    3.4202    7.9009   20.3866 C   0  0  0  0  0  0  0  0  0  0  0  0
   13.5280   10.3522   19.3586 C   0  0  0  0  0  0  0  0  0  0  0  0
    9.6923    5.6468   22.7891 C   0  0  0  0  0  0  0  0  0  0  0  0
   11.7756   10.2554   20.8841 N   0  0  0  0  0  0  0  0  0  0  0  0
    8.9876   11.9370   19.8757 O   0  0  0  0  0  0  0  0  0  0  0  0
    6.0167    8.4478   21.1089 C   0  0  0  0  0  0  0  0  0  0  0  0
   11.0002   10.8890   20.0262 C   0  0  0  0  0  0  0  0  0  0  0  0
    2.1721    7.7393   20.0315 O   0  0  0  0  0  0  0  0  0  0  0  0
    9.1107   10.3880   21.3769 N   0  0  0  0  0  0  0  0  0  0  0  0
    3.9102    9.2008   20.3124 C   0  0  0  0  0  0  0  0  0  0  0  0
   12.7292   10.9960   18.4597 C   0  0  0  0  0  0  0  0  0  0  0  0
    9.3798    6.6793   23.6625 C   0  0  0  0  0  0  0  0  0  0  0  0
   14.7425   10.0739   19.0802 O   0  0  0  0  0  0  0  0  0  0  0  0
    5.1894    9.4673   20.7118 C   0  0  0  0  0  0  0  0  0  0  0  0
    7.3773    8.8224   21.4870 C   0  0  0  0  0  0  0  0  0  0  0  0
    8.4391    6.6439   21.0235 C   0  0  0  0  0  0  0  0  0  0  0  0
    9.6494   11.1353   20.4167 C   0  0  0  0  0  0  0  0  0  0  0  0
    8.1431    7.6829   21.9046 C   0  0  0  0  0  0  0  0  0  0  0  0
    7.7796   10.1314   21.5115 N   0  0  0  0  0  0  0  0  0  0  0  0
    9.2768    5.6183   21.4437 C   0  0  0  0  0  0  0  0  0  0  0  0
    8.6315    7.7322   23.1768 C   0  0  0  0  0  0  0  0  0  0  0  0
   13.0537    9.9821   20.5781 C   0  0  0  0  0  0  0  0  0  0  0  0
   10.3850    4.6575   23.2386 O   0  0  0  0  0  0  0  0  0  0  0  0
    4.2069    6.8450   20.7994 C   0  0  0  0  0  0  0  0  0  0  0  0
    3.0726   10.1043   19.8522 O   0  0  0  0  0  0  0  0  0  0  0  0
    5.5057    7.1196   21.1155 C   0  0  0  0  0  0  0  0  0  0  0  0
    7.0367   11.0229   21.9948 O   0  0  0  0  0  0  0  0  0  0  0  0
  1  8  4  0
  1 12  4  0
  2  9  1  0
  2 11  4  0
  2 25  4  0
  3 12  4  0
  3 14  1  0
  3 23  4  0
  4 13  4  0
  4 21  4  0
  4 24  1  0
  5  8  4  0
  5 23  4  0
  6 18  2  0
  7 15  4  0
  7 16  1  0
  7 27  4  0
  8 18  1  0
 10 18  1  0
 10 20  1  0
 11 15  4  0
 11 26  1  0
 13 22  4  0
 16 19  1  0
 16 20  2  0
 17 19  4  0
 17 21  4  0
 19 22  4  0
 20 28  1  0
 25 27  4  0
M  END
$$$$

 Created by Python create_sdf_string function

 28 30  0  0  0  0  0  0  0  0999 V2000
   11.4592   11.2893   18.7941 C   0  0  0  0  0  0  0  0  0  0  0  0
    3.4202    7.9009   20.3866 C   0  0  0  0  0  0  0  0  0  0  0  0
   13.5280   10.3522   19.3586 C   0  0  0  0  0  0  0  0  0  0  0  0
    9.6923    5.6468   22.7891 C   0  0  0  0  0  0  0  0  0  0  0  0
   11.7756   10.2554   20.8841 N   0  0  0  0  0  0  0  0  0  0  0  0
    8.9876   11.9370   19.8757 O   0  0  0  0  0  0  0  0  0  0  0  0
    6.0167    8.4478   21.1089 C   0  0  0  0  0  0  0  0  0  0  0  0
   11.0002   10.8890   20.0262 C   0  0  0  0  0  0  0  0  0  0  0  0
    2.1721    7.7393   20.0315 O   0  0  0  0  0  0  0  0  0  0  0  0
    9.1107   10.3880   21.3769 N   0  0  0  0  0  0  0  0  0  0  0  0
    3.9102    9.2008   20.3124 C   0  0  0  0  0  0  0  0  0  0  0  0
   12.7292   10.9960   18.4597 C   0  0  0  0  0  0  0  0  0  0  0  0
    9.3798    6.6793   23.6625 C   0  0  0  0  0  0  0  0  0  0  0  0
   14.7425   10.0739   19.0802 O   0  0  0  0  0  0  0  0  0  0  0  0
    5.1894    9.4673   20.7118 C   0  0  0  0  0  0  0  0  0  0  0  0
    7.3773    8.8224   21.4870 C   0  0  0  0  0  0  0  0  0  0  0  0
    8.4391    6.6439   21.0235 C   0  0  0  0  0  0  0  0  0  0  0  0
    9.6494   11.1353   20.4167 C   0  0  0  0  0  0  0  0  0  0  0  0
    8.1431    7.6829   21.9046 C   0  0  0  0  0  0  0  0  0  0  0  0
    7.7796   10.1314   21.5115 N   0  0  0  0  0  0  0  0  0  0  0  0
    9.2768    5.6183   21.4437 C   0  0  0  0  0  0  0  0  0  0  0  0
    8.6315    7.7322   23.1768 C   0  0  0  0  0  0  0  0  0  0  0  0
   13.0537    9.9821   20.5781 C   0  0  0  0  0  0  0  0  0  0  0  0
   10.3850    4.6575   23.2386 O   0  0  0  0  0  0  0  0  0  0  0  0
    4.2069    6.8450   20.7994 C   0  0  0  0  0  0  0  0  0  0  0  0
    3.0726   10.1043   19.8522 O   0  0  0  0  0  0  0  0  0  0  0  0
    5.5057    7.1196   21.1155 C   0  0  0  0  0  0  0  0  0  0  0  0
    7.0367   11.0229   21.9948 O   0  0  0  0  0  0  0  0  0  0  0  0
  1  8  4  0
  1 12  4  0
  2  9  1  0
  2 11  4  0
  2 25  4  0
  3 12  4  0
  3 14  1  0
  3 23  4  0
  4 13  4  0
  4 21  4  0
  4 24  1  0
  5  8  4  0
  5 23  4  0
  6 18  2  0
  7 15  4  0
  7 16  1  0
  7 27  4  0
  8 18  1  0
 10 18  1  0
 10 20  1  0
 11 15  4  0
 11 26  1  0
 13 22  4  0
 16 19  1  0
 16 20  2  0
 17 19  4  0
 17 21  4  0
 19 22  4  0
 20 28  1  0
 25 27  4  0
M  END
$$$$

 Created by Python create_sdf_string function

 28 30  0  0  0  0  0  0  0  0999 V2000
   11.4592   11.2893   18.7941 C   0  0  0  0  0  0  0  0  0  0  0  0
    3.4202    7.9009   20.3866 C   0  0  0  0  0  0  0  0  0  0  0  0
   13.5280   10.3522   19.3586 C   0  0  0  0  0  0  0  0  0  0  0  0
    9.6923    5.6468   22.7891 C   0  0  0  0  0  0  0  0  0  0  0  0
   11.7756   10.2554   20.8841 N   0  0  0  0  0  0  0  0  0  0  0  0
    8.9876   11.9370   19.8757 O   0  0  0  0  0  0  0  0  0  0  0  0
    6.0167    8.4478   21.1089 C   0  0  0  0  0  0  0  0  0  0  0  0
   11.0002   10.8890   20.0262 C   0  0  0  0  0  0  0  0  0  0  0  0
    2.1721    7.7393   20.0315 O   0  0  0  0  0  0  0  0  0  0  0  0
    9.1107   10.3880   21.3769 N   0  0  0  0  0  0  0  0  0  0  0  0
    3.9102    9.2008   20.3124 C   0  0  0  0  0  0  0  0  0  0  0  0
   12.7292   10.9960   18.4597 C   0  0  0  0  0  0  0  0  0  0  0  0
    9.3798    6.6793   23.6625 C   0  0  0  0  0  0  0  0  0  0  0  0
   14.7425   10.0739   19.0802 O   0  0  0  0  0  0  0  0  0  0  0  0
    5.1894    9.4673   20.7118 C   0  0  0  0  0  0  0  0  0  0  0  0
    7.3773    8.8224   21.4870 C   0  0  0  0  0  0  0  0  0  0  0  0
    8.4391    6.6439   21.0235 C   0  0  0  0  0  0  0  0  0  0  0  0
    9.6494   11.1353   20.4167 C   0  0  0  0  0  0  0  0  0  0  0  0
    8.1431    7.6829   21.9046 C   0  0  0  0  0  0  0  0  0  0  0  0
    7.7796   10.1314   21.5115 N   0  0  0  0  0  0  0  0  0  0  0  0
    9.2768    5.6183   21.4437 C   0  0  0  0  0  0  0  0  0  0  0  0
    8.6315    7.7322   23.1768 C   0  0  0  0  0  0  0  0  0  0  0  0
   13.0537    9.9821   20.5781 C   0  0  0  0  0  0  0  0  0  0  0  0
   10.3850    4.6575   23.2386 O   0  0  0  0  0  0  0  0  0  0  0  0
    4.2069    6.8450   20.7994 C   0  0  0  0  0  0  0  0  0  0  0  0
    3.0726   10.1043   19.8522 O   0  0  0  0  0  0  0  0  0  0  0  0
    5.5057    7.1196   21.1155 C   0  0  0  0  0  0  0  0  0  0  0  0
    7.0367   11.0229   21.9948 O   0  0  0  0  0  0  0  0  0  0  0  0
  1  8  4  0
  1 12  4  0
  2  9  1  0
  2 11  4  0
  2 25  4  0
  3 12  4  0
  3 14  1  0
  3 23  4  0
  4 13  4  0
  4 21  4  0
  4 24  1  0
  5  8  4  0
  5 23  4  0
  6 18  2  0
  7 15  4  0
  7 16  1  0
  7 27  4  0
  8 18  1  0
 10 18  1  0
 10 20  1  0
 11 15  4  0
 11 26  1  0
 13 22  4  0
 16 19  1  0
 16 20  2  0
 17 19  4  0
 17 21  4  0
 19 22  4  0
 20 28  1  0
 25 27  4  0
M  END
$$$$

 Created by Python create_sdf_string function

 28 30  0  0  0  0  0  0  0  0999 V2000
   11.4592   11.2893   18.7941 C   0  0  0  0  0  0  0  0  0  0  0  0
    3.4202    7.9009   20.3866 C   0  0  0  0  0  0  0  0  0  0  0  0
   13.5280   10.3522   19.3586 C   0  0  0  0  0  0  0  0  0  0  0  0
    9.6923    5.6468   22.7891 C   0  0  0  0  0  0  0  0  0  0  0  0
   11.7756   10.2554   20.8841 N   0  0  0  0  0  0  0  0  0  0  0  0
    8.9876   11.9370   19.8757 O   0  0  0  0  0  0  0  0  0  0  0  0
    6.0167    8.4478   21.1089 C   0  0  0  0  0  0  0  0  0  0  0  0
   11.0002   10.8890   20.0262 C   0  0  0  0  0  0  0  0  0  0  0  0
    2.1721    7.7393   20.0315 O   0  0  0  0  0  0  0  0  0  0  0  0
    9.1107   10.3880   21.3769 N   0  0  0  0  0  0  0  0  0  0  0  0
    3.9102    9.2008   20.3124 C   0  0  0  0  0  0  0  0  0  0  0  0
   12.7292   10.9960   18.4597 C   0  0  0  0  0  0  0  0  0  0  0  0
    9.3798    6.6793   23.6625 C   0  0  0  0  0  0  0  0  0  0  0  0
   14.7425   10.0739   19.0802 O   0  0  0  0  0  0  0  0  0  0  0  0
    5.1894    9.4673   20.7118 C   0  0  0  0  0  0  0  0  0  0  0  0
    7.3773    8.8224   21.4870 C   0  0  0  0  0  0  0  0  0  0  0  0
    8.4391    6.6439   21.0235 C   0  0  0  0  0  0  0  0  0  0  0  0
    9.6494   11.1353   20.4167 C   0  0  0  0  0  0  0  0  0  0  0  0
    8.1431    7.6829   21.9046 C   0  0  0  0  0  0  0  0  0  0  0  0
    7.7796   10.1314   21.5115 N   0  0  0  0  0  0  0  0  0  0  0  0
    9.2768    5.6183   21.4437 C   0  0  0  0  0  0  0  0  0  0  0  0
    8.6315    7.7322   23.1768 C   0  0  0  0  0  0  0  0  0  0  0  0
   13.0537    9.9821   20.5781 C   0  0  0  0  0  0  0  0  0  0  0  0
   10.3850    4.6575   23.2386 O   0  0  0  0  0  0  0  0  0  0  0  0
    4.2069    6.8450   20.7994 C   0  0  0  0  0  0  0  0  0  0  0  0
    3.0726   10.1043   19.8522 O   0  0  0  0  0  0  0  0  0  0  0  0
    5.5057    7.1196   21.1155 C   0  0  0  0  0  0  0  0  0  0  0  0
    7.0367   11.0229   21.9948 O   0  0  0  0  0  0  0  0  0  0  0  0
  1  8  4  0
  1 12  4  0
  2  9  1  0
  2 11  4  0
  2 25  4  0
  3 12  4  0
  3 14  1  0
  3 23  4  0
  4 13  4  0
  4 21  4  0
  4 24  1  0
  5  8  4  0
  5 23  4  0
  6 18  2  0
  7 15  4  0
  7 16  1  0
  7 27  4  0
  8 18  1  0
 10 18  1  0
 10 20  1  0
 11 15  4  0
 11 26  1  0
 13 22  4  0
 16 19  1  0
 16 20  2  0
 17 19  4  0
 17 21  4  0
 19 22  4  0
 20 28  1  0
 25 27  4  0
M  END
$$$$

 Created by Python create_sdf_string function

 28 30  0  0  0  0  0  0  0  0999 V2000
   11.4592   11.2893   18.7941 C   0  0  0  0  0  0  0  0  0  0  0  0
    3.4202    7.9009   20.3866 C   0  0  0  0  0  0  0  0  0  0  0  0
   13.5280   10.3522   19.3586 C   0  0  0  0  0  0  0  0  0  0  0  0
    9.6923    5.6468   22.7891 C   0  0  0  0  0  0  0  0  0  0  0  0
   11.7756   10.2554   20.8841 N   0  0  0  0  0  0  0  0  0  0  0  0
    8.9876   11.9370   19.8757 O   0  0  0  0  0  0  0  0  0  0  0  0
    6.0167    8.4478   21.1089 C   0  0  0  0  0  0  0  0  0  0  0  0
   11.0002   10.8890   20.0262 C   0  0  0  0  0  0  0  0  0  0  0  0
    2.1721    7.7393   20.0315 O   0  0  0  0  0  0  0  0  0  0  0  0
    9.1107   10.3880   21.3769 N   0  0  0  0  0  0  0  0  0  0  0  0
    3.9102    9.2008   20.3124 C   0  0  0  0  0  0  0  0  0  0  0  0
   12.7292   10.9960   18.4597 C   0  0  0  0  0  0  0  0  0  0  0  0
    9.3798    6.6793   23.6625 C   0  0  0  0  0  0  0  0  0  0  0  0
   14.7425   10.0739   19.0802 O   0  0  0  0  0  0  0  0  0  0  0  0
    5.1894    9.4673   20.7118 C   0  0  0  0  0  0  0  0  0  0  0  0
    7.3773    8.8224   21.4870 C   0  0  0  0  0  0  0  0  0  0  0  0
    8.4391    6.6439   21.0235 C   0  0  0  0  0  0  0  0  0  0  0  0
    9.6494   11.1353   20.4167 C   0  0  0  0  0  0  0  0  0  0  0  0
    8.1431    7.6829   21.9046 C   0  0  0  0  0  0  0  0  0  0  0  0
    7.7796   10.1314   21.5115 N   0  0  0  0  0  0  0  0  0  0  0  0
    9.2768    5.6183   21.4437 C   0  0  0  0  0  0  0  0  0  0  0  0
    8.6315    7.7322   23.1768 C   0  0  0  0  0  0  0  0  0  0  0  0
   13.0537    9.9821   20.5781 C   0  0  0  0  0  0  0  0  0  0  0  0
   10.3850    4.6575   23.2386 O   0  0  0  0  0  0  0  0  0  0  0  0
    4.2069    6.8450   20.7994 C   0  0  0  0  0  0  0  0  0  0  0  0
    3.0726   10.1043   19.8522 O   0  0  0  0  0  0  0  0  0  0  0  0
    5.5057    7.1196   21.1155 C   0  0  0  0  0  0  0  0  0  0  0  0
    7.0367   11.0229   21.9948 O   0  0  0  0  0  0  0  0  0  0  0  0
  1  8  4  0
  1 12  4  0
  2  9  1  0
  2 11  4  0
  2 25  4  0
  3 12  4  0
  3 14  1  0
  3 23  4  0
  4 13  4  0
  4 21  4  0
  4 24  1  0
  5  8  4  0
  5 23  4  0
  6 18  2  0
  7 15  4  0
  7 16  1  0
  7 27  4  0
  8 18  1  0
 10 18  1  0
 10 20  1  0
 11 15  4  0
 11 26  1  0
 13 22  4  0
 16 19  1  0
 16 20  2  0
 17 19  4  0
 17 21  4  0
 19 22  4  0
 20 28  1  0
 25 27  4  0
M  END
$$$$

 Created by Python create_sdf_string function

 28 30  0  0  0  0  0  0  0  0999 V2000
   11.4592   11.2893   18.7941 C   0  0  0  0  0  0  0  0  0  0  0  0
    3.4202    7.9009   20.3866 C   0  0  0  0  0  0  0  0  0  0  0  0
   13.5280   10.3522   19.3586 C   0  0  0  0  0  0  0  0  0  0  0  0
    9.6923    5.6468   22.7891 C   0  0  0  0  0  0  0  0  0  0  0  0
   11.7756   10.2554   20.8841 N   0  0  0  0  0  0  0  0  0  0  0  0
    8.9876   11.9370   19.8757 O   0  0  0  0  0  0  0  0  0  0  0  0
    6.0167    8.4478   21.1089 C   0  0  0  0  0  0  0  0  0  0  0  0
   11.0002   10.8890   20.0262 C   0  0  0  0  0  0  0  0  0  0  0  0
    2.1721    7.7393   20.0315 O   0  0  0  0  0  0  0  0  0  0  0  0
    9.1107   10.3880   21.3769 N   0  0  0  0  0  0  0  0  0  0  0  0
    3.9102    9.2008   20.3124 C   0  0  0  0  0  0  0  0  0  0  0  0
   12.7292   10.9960   18.4597 C   0  0  0  0  0  0  0  0  0  0  0  0
    9.3798    6.6793   23.6625 C   0  0  0  0  0  0  0  0  0  0  0  0
   14.7425   10.0739   19.0802 O   0  0  0  0  0  0  0  0  0  0  0  0
    5.1894    9.4673   20.7118 C   0  0  0  0  0  0  0  0  0  0  0  0
    7.3773    8.8224   21.4870 C   0  0  0  0  0  0  0  0  0  0  0  0
    8.4391    6.6439   21.0235 C   0  0  0  0  0  0  0  0  0  0  0  0
    9.6494   11.1353   20.4167 C   0  0  0  0  0  0  0  0  0  0  0  0
    8.1431    7.6829   21.9046 C   0  0  0  0  0  0  0  0  0  0  0  0
    7.7796   10.1314   21.5115 N   0  0  0  0  0  0  0  0  0  0  0  0
    9.2768    5.6183   21.4437 C   0  0  0  0  0  0  0  0  0  0  0  0
    8.6315    7.7322   23.1768 C   0  0  0  0  0  0  0  0  0  0  0  0
   13.0537    9.9821   20.5781 C   0  0  0  0  0  0  0  0  0  0  0  0
   10.3850    4.6575   23.2386 O   0  0  0  0  0  0  0  0  0  0  0  0
    4.2069    6.8450   20.7994 C   0  0  0  0  0  0  0  0  0  0  0  0
    3.0726   10.1043   19.8522 O   0  0  0  0  0  0  0  0  0  0  0  0
    5.5057    7.1196   21.1155 C   0  0  0  0  0  0  0  0  0  0  0  0
    7.0367   11.0229   21.9948 O   0  0  0  0  0  0  0  0  0  0  0  0
  1  8  4  0
  1 12  4  0
  2  9  1  0
  2 11  4  0
  2 25  4  0
  3 12  4  0
  3 14  1  0
  3 23  4  0
  4 13  4  0
  4 21  4  0
  4 24  1  0
  5  8  4  0
  5 23  4  0
  6 18  2  0
  7 15  4  0
  7 16  1  0
  7 27  4  0
  8 18  1  0
 10 18  1  0
 10 20  1  0
 11 15  4  0
 11 26  1  0
 13 22  4  0
 16 19  1  0
 16 20  2  0
 17 19  4  0
 17 21  4  0
 19 22  4  0
 20 28  1  0
 25 27  4  0
M  END
$$$$

 Created by Python create_sdf_string function

 28 30  0  0  0  0  0  0  0  0999 V2000
   11.4592   11.2893   18.7941 C   0  0  0  0  0  0  0  0  0  0  0  0
    3.4202    7.9009   20.3866 C   0  0  0  0  0  0  0  0  0  0  0  0
   13.5280   10.3522   19.3586 C   0  0  0  0  0  0  0  0  0  0  0  0
    9.6923    5.6468   22.7891 C   0  0  0  0  0  0  0  0  0  0  0  0
   11.7756   10.2554   20.8841 N   0  0  0  0  0  0  0  0  0  0  0  0
    8.9876   11.9370   19.8757 O   0  0  0  0  0  0  0  0  0  0  0  0
    6.0167    8.4478   21.1089 C   0  0  0  0  0  0  0  0  0  0  0  0
   11.0002   10.8890   20.0262 C   0  0  0  0  0  0  0  0  0  0  0  0
    2.1721    7.7393   20.0315 O   0  0  0  0  0  0  0  0  0  0  0  0
    9.1107   10.3880   21.3769 N   0  0  0  0  0  0  0  0  0  0  0  0
    3.9102    9.2008   20.3124 C   0  0  0  0  0  0  0  0  0  0  0  0
   12.7292   10.9960   18.4597 C   0  0  0  0  0  0  0  0  0  0  0  0
    9.3798    6.6793   23.6625 C   0  0  0  0  0  0  0  0  0  0  0  0
   14.7425   10.0739   19.0802 O   0  0  0  0  0  0  0  0  0  0  0  0
    5.1894    9.4673   20.7118 C   0  0  0  0  0  0  0  0  0  0  0  0
    7.3773    8.8224   21.4870 C   0  0  0  0  0  0  0  0  0  0  0  0
    8.4391    6.6439   21.0235 C   0  0  0  0  0  0  0  0  0  0  0  0
    9.6494   11.1353   20.4167 C   0  0  0  0  0  0  0  0  0  0  0  0
    8.1431    7.6829   21.9046 C   0  0  0  0  0  0  0  0  0  0  0  0
    7.7796   10.1314   21.5115 N   0  0  0  0  0  0  0  0  0  0  0  0
    9.2768    5.6183   21.4437 C   0  0  0  0  0  0  0  0  0  0  0  0
    8.6315    7.7322   23.1768 C   0  0  0  0  0  0  0  0  0  0  0  0
   13.0537    9.9821   20.5781 C   0  0  0  0  0  0  0  0  0  0  0  0
   10.3850    4.6575   23.2386 O   0  0  0  0  0  0  0  0  0  0  0  0
    4.2069    6.8450   20.7994 C   0  0  0  0  0  0  0  0  0  0  0  0
    3.0726   10.1043   19.8522 O   0  0  0  0  0  0  0  0  0  0  0  0
    5.5057    7.1196   21.1155 C   0  0  0  0  0  0  0  0  0  0  0  0
    7.0367   11.0229   21.9948 O   0  0  0  0  0  0  0  0  0  0  0  0
  1  8  4  0
  1 12  4  0
  2  9  1  0
  2 11  4  0
  2 25  4  0
  3 12  4  0
  3 14  1  0
  3 23  4  0
  4 13  4  0
  4 21  4  0
  4 24  1  0
  5  8  4  0
  5 23  4  0
  6 18  2  0
  7 15  4  0
  7 16  1  0
  7 27  4  0
  8 18  1  0
 10 18  1  0
 10 20  1  0
 11 15  4  0
 11 26  1  0
 13 22  4  0
 16 19  1  0
 16 20  2  0
 17 19  4  0
 17 21  4  0
 19 22  4  0
 20 28  1  0
 25 27  4  0
M  END
$$$$

 Created by Python create_sdf_string function

 28 30  0  0  0  0  0  0  0  0999 V2000
   11.4592   11.2893   18.7941 C   0  0  0  0  0  0  0  0  0  0  0  0
    3.4202    7.9009   20.3866 C   0  0  0  0  0  0  0  0  0  0  0  0
   13.5280   10.3522   19.3586 C   0  0  0  0  0  0  0  0  0  0  0  0
    9.6923    5.6468   22.7891 C   0  0  0  0  0  0  0  0  0  0  0  0
   11.7756   10.2554   20.8841 N   0  0  0  0  0  0  0  0  0  0  0  0
    8.9876   11.9370   19.8757 O   0  0  0  0  0  0  0  0  0  0  0  0
    6.0167    8.4478   21.1089 C   0  0  0  0  0  0  0  0  0  0  0  0
   11.0002   10.8890   20.0262 C   0  0  0  0  0  0  0  0  0  0  0  0
    2.1721    7.7393   20.0315 O   0  0  0  0  0  0  0  0  0  0  0  0
    9.1107   10.3880   21.3769 N   0  0  0  0  0  0  0  0  0  0  0  0
    3.9102    9.2008   20.3124 C   0  0  0  0  0  0  0  0  0  0  0  0
   12.7292   10.9960   18.4597 C   0  0  0  0  0  0  0  0  0  0  0  0
    9.3798    6.6793   23.6625 C   0  0  0  0  0  0  0  0  0  0  0  0
   14.7425   10.0739   19.0802 O   0  0  0  0  0  0  0  0  0  0  0  0
    5.1894    9.4673   20.7118 C   0  0  0  0  0  0  0  0  0  0  0  0
    7.3773    8.8224   21.4870 C   0  0  0  0  0  0  0  0  0  0  0  0
    8.4391    6.6439   21.0235 C   0  0  0  0  0  0  0  0  0  0  0  0
    9.6494   11.1353   20.4167 C   0  0  0  0  0  0  0  0  0  0  0  0
    8.1431    7.6829   21.9046 C   0  0  0  0  0  0  0  0  0  0  0  0
    7.7796   10.1314   21.5115 N   0  0  0  0  0  0  0  0  0  0  0  0
    9.2768    5.6183   21.4437 C   0  0  0  0  0  0  0  0  0  0  0  0
    8.6315    7.7322   23.1768 C   0  0  0  0  0  0  0  0  0  0  0  0
   13.0537    9.9821   20.5781 C   0  0  0  0  0  0  0  0  0  0  0  0
   10.3850    4.6575   23.2386 O   0  0  0  0  0  0  0  0  0  0  0  0
    4.2069    6.8450   20.7994 C   0  0  0  0  0  0  0  0  0  0  0  0
    3.0726   10.1043   19.8522 O   0  0  0  0  0  0  0  0  0  0  0  0
    5.5057    7.1196   21.1155 C   0  0  0  0  0  0  0  0  0  0  0  0
    7.0367   11.0229   21.9948 O   0  0  0  0  0  0  0  0  0  0  0  0
  1  8  4  0
  1 12  4  0
  2  9  1  0
  2 11  4  0
  2 25  4  0
  3 12  4  0
  3 14  1  0
  3 23  4  0
  4 13  4  0
  4 21  4  0
  4 24  1  0
  5  8  4  0
  5 23  4  0
  6 18  2  0
  7 15  4  0
  7 16  1  0
  7 27  4  0
  8 18  1  0
 10 18  1  0
 10 20  1  0
 11 15  4  0
 11 26  1  0
 13 22  4  0
 16 19  1  0
 16 20  2  0
 17 19  4  0
 17 21  4  0
 19 22  4  0
 20 28  1  0
 25 27  4  0
M  END
$$$$

 Created by Python create_sdf_string function

 28 30  0  0  0  0  0  0  0  0999 V2000
   11.4592   11.2893   18.7941 C   0  0  0  0  0  0  0  0  0  0  0  0
    3.4202    7.9009   20.3866 C   0  0  0  0  0  0  0  0  0  0  0  0
   13.5280   10.3522   19.3586 C   0  0  0  0  0  0  0  0  0  0  0  0
    9.6923    5.6468   22.7891 C   0  0  0  0  0  0  0  0  0  0  0  0
   11.7756   10.2554   20.8841 N   0  0  0  0  0  0  0  0  0  0  0  0
    8.9876   11.9370   19.8757 O   0  0  0  0  0  0  0  0  0  0  0  0
    6.0167    8.4478   21.1089 C   0  0  0  0  0  0  0  0  0  0  0  0
   11.0002   10.8890   20.0262 C   0  0  0  0  0  0  0  0  0  0  0  0
    2.1721    7.7393   20.0315 O   0  0  0  0  0  0  0  0  0  0  0  0
    9.1107   10.3880   21.3769 N   0  0  0  0  0  0  0  0  0  0  0  0
    3.9102    9.2008   20.3124 C   0  0  0  0  0  0  0  0  0  0  0  0
   12.7292   10.9960   18.4597 C   0  0  0  0  0  0  0  0  0  0  0  0
    9.3798    6.6793   23.6625 C   0  0  0  0  0  0  0  0  0  0  0  0
   14.7425   10.0739   19.0802 O   0  0  0  0  0  0  0  0  0  0  0  0
    5.1894    9.4673   20.7118 C   0  0  0  0  0  0  0  0  0  0  0  0
    7.3773    8.8224   21.4870 C   0  0  0  0  0  0  0  0  0  0  0  0
    8.4391    6.6439   21.0235 C   0  0  0  0  0  0  0  0  0  0  0  0
    9.6494   11.1353   20.4167 C   0  0  0  0  0  0  0  0  0  0  0  0
    8.1431    7.6829   21.9046 C   0  0  0  0  0  0  0  0  0  0  0  0
    7.7796   10.1314   21.5115 N   0  0  0  0  0  0  0  0  0  0  0  0
    9.2768    5.6183   21.4437 C   0  0  0  0  0  0  0  0  0  0  0  0
    8.6315    7.7322   23.1768 C   0  0  0  0  0  0  0  0  0  0  0  0
   13.0537    9.9821   20.5781 C   0  0  0  0  0  0  0  0  0  0  0  0
   10.3850    4.6575   23.2386 O   0  0  0  0  0  0  0  0  0  0  0  0
    4.2069    6.8450   20.7994 C   0  0  0  0  0  0  0  0  0  0  0  0
    3.0726   10.1043   19.8522 O   0  0  0  0  0  0  0  0  0  0  0  0
    5.5057    7.1196   21.1155 C   0  0  0  0  0  0  0  0  0  0  0  0
    7.0367   11.0229   21.9948 O   0  0  0  0  0  0  0  0  0  0  0  0
  1  8  4  0
  1 12  4  0
  2  9  1  0
  2 11  4  0
  2 25  4  0
  3 12  4  0
  3 14  1  0
  3 23  4  0
  4 13  4  0
  4 21  4  0
  4 24  1  0
  5  8  4  0
  5 23  4  0
  6 18  2  0
  7 15  4  0
  7 16  1  0
  7 27  4  0
  8 18  1  0
 10 18  1  0
 10 20  1  0
 11 15  4  0
 11 26  1  0
 13 22  4  0
 16 19  1  0
 16 20  2  0
 17 19  4  0
 17 21  4  0
 19 22  4  0
 20 28  1  0
 25 27  4  0
M  END
$$$$

 Created by Python create_sdf_string function

 28 30  0  0  0  0  0  0  0  0999 V2000
   11.4592   11.2893   18.7941 C   0  0  0  0  0  0  0  0  0  0  0  0
    3.4202    7.9009   20.3866 C   0  0  0  0  0  0  0  0  0  0  0  0
   13.5280   10.3522   19.3586 C   0  0  0  0  0  0  0  0  0  0  0  0
    9.6923    5.6468   22.7891 C   0  0  0  0  0  0  0  0  0  0  0  0
   11.7756   10.2554   20.8841 N   0  0  0  0  0  0  0  0  0  0  0  0
    8.9876   11.9370   19.8757 O   0  0  0  0  0  0  0  0  0  0  0  0
    6.0167    8.4478   21.1089 C   0  0  0  0  0  0  0  0  0  0  0  0
   11.0002   10.8890   20.0262 C   0  0  0  0  0  0  0  0  0  0  0  0
    2.1721    7.7393   20.0315 O   0  0  0  0  0  0  0  0  0  0  0  0
    9.1107   10.3880   21.3769 N   0  0  0  0  0  0  0  0  0  0  0  0
    3.9102    9.2008   20.3124 C   0  0  0  0  0  0  0  0  0  0  0  0
   12.7292   10.9960   18.4597 C   0  0  0  0  0  0  0  0  0  0  0  0
    9.3798    6.6793   23.6625 C   0  0  0  0  0  0  0  0  0  0  0  0
   14.7425   10.0739   19.0802 O   0  0  0  0  0  0  0  0  0  0  0  0
    5.1894    9.4673   20.7118 C   0  0  0  0  0  0  0  0  0  0  0  0
    7.3773    8.8224   21.4870 C   0  0  0  0  0  0  0  0  0  0  0  0
    8.4391    6.6439   21.0235 C   0  0  0  0  0  0  0  0  0  0  0  0
    9.6494   11.1353   20.4167 C   0  0  0  0  0  0  0  0  0  0  0  0
    8.1431    7.6829   21.9046 C   0  0  0  0  0  0  0  0  0  0  0  0
    7.7796   10.1314   21.5115 N   0  0  0  0  0  0  0  0  0  0  0  0
    9.2768    5.6183   21.4437 C   0  0  0  0  0  0  0  0  0  0  0  0
    8.6315    7.7322   23.1768 C   0  0  0  0  0  0  0  0  0  0  0  0
   13.0537    9.9821   20.5781 C   0  0  0  0  0  0  0  0  0  0  0  0
   10.3850    4.6575   23.2386 O   0  0  0  0  0  0  0  0  0  0  0  0
    4.2069    6.8450   20.7994 C   0  0  0  0  0  0  0  0  0  0  0  0
    3.0726   10.1043   19.8522 O   0  0  0  0  0  0  0  0  0  0  0  0
    5.5057    7.1196   21.1155 C   0  0  0  0  0  0  0  0  0  0  0  0
    7.0367   11.0229   21.9948 O   0  0  0  0  0  0  0  0  0  0  0  0
  1  8  4  0
  1 12  4  0
  2  9  1  0
  2 11  4  0
  2 25  4  0
  3 12  4  0
  3 14  1  0
  3 23  4  0
  4 13  4  0
  4 21  4  0
  4 24  1  0
  5  8  4  0
  5 23  4  0
  6 18  2  0
  7 15  4  0
  7 16  1  0
  7 27  4  0
  8 18  1  0
 10 18  1  0
 10 20  1  0
 11 15  4  0
 11 26  1  0
 13 22  4  0
 16 19  1  0
 16 20  2  0
 17 19  4  0
 17 21  4  0
 19 22  4  0
 20 28  1  0
 25 27  4  0
M  END
$$$$

 Created by Python create_sdf_string function

 28 30  0  0  0  0  0  0  0  0999 V2000
   11.4592   11.2893   18.7941 C   0  0  0  0  0  0  0  0  0  0  0  0
    3.4202    7.9009   20.3866 C   0  0  0  0  0  0  0  0  0  0  0  0
   13.5280   10.3522   19.3586 C   0  0  0  0  0  0  0  0  0  0  0  0
    9.6923    5.6468   22.7891 C   0  0  0  0  0  0  0  0  0  0  0  0
   11.7756   10.2554   20.8841 N   0  0  0  0  0  0  0  0  0  0  0  0
    8.9876   11.9370   19.8757 O   0  0  0  0  0  0  0  0  0  0  0  0
    6.0167    8.4478   21.1089 C   0  0  0  0  0  0  0  0  0  0  0  0
   11.0002   10.8890   20.0262 C   0  0  0  0  0  0  0  0  0  0  0  0
    2.1721    7.7393   20.0315 O   0  0  0  0  0  0  0  0  0  0  0  0
    9.1107   10.3880   21.3769 N   0  0  0  0  0  0  0  0  0  0  0  0
    3.9102    9.2008   20.3124 C   0  0  0  0  0  0  0  0  0  0  0  0
   12.7292   10.9960   18.4597 C   0  0  0  0  0  0  0  0  0  0  0  0
    9.3798    6.6793   23.6625 C   0  0  0  0  0  0  0  0  0  0  0  0
   14.7425   10.0739   19.0802 O   0  0  0  0  0  0  0  0  0  0  0  0
    5.1894    9.4673   20.7118 C   0  0  0  0  0  0  0  0  0  0  0  0
    7.3773    8.8224   21.4870 C   0  0  0  0  0  0  0  0  0  0  0  0
    8.4391    6.6439   21.0235 C   0  0  0  0  0  0  0  0  0  0  0  0
    9.6494   11.1353   20.4167 C   0  0  0  0  0  0  0  0  0  0  0  0
    8.1431    7.6829   21.9046 C   0  0  0  0  0  0  0  0  0  0  0  0
    7.7796   10.1314   21.5115 N   0  0  0  0  0  0  0  0  0  0  0  0
    9.2768    5.6183   21.4437 C   0  0  0  0  0  0  0  0  0  0  0  0
    8.6315    7.7322   23.1768 C   0  0  0  0  0  0  0  0  0  0  0  0
   13.0537    9.9821   20.5781 C   0  0  0  0  0  0  0  0  0  0  0  0
   10.3850    4.6575   23.2386 O   0  0  0  0  0  0  0  0  0  0  0  0
    4.2069    6.8450   20.7994 C   0  0  0  0  0  0  0  0  0  0  0  0
    3.0726   10.1043   19.8522 O   0  0  0  0  0  0  0  0  0  0  0  0
    5.5057    7.1196   21.1155 C   0  0  0  0  0  0  0  0  0  0  0  0
    7.0367   11.0229   21.9948 O   0  0  0  0  0  0  0  0  0  0  0  0
  1  8  4  0
  1 12  4  0
  2  9  1  0
  2 11  4  0
  2 25  4  0
  3 12  4  0
  3 14  1  0
  3 23  4  0
  4 13  4  0
  4 21  4  0
  4 24  1  0
  5  8  4  0
  5 23  4  0
  6 18  2  0
  7 15  4  0
  7 16  1  0
  7 27  4  0
  8 18  1  0
 10 18  1  0
 10 20  1  0
 11 15  4  0
 11 26  1  0
 13 22  4  0
 16 19  1  0
 16 20  2  0
 17 19  4  0
 17 21  4  0
 19 22  4  0
 20 28  1  0
 25 27  4  0
M  END
$$$$

 Created by Python create_sdf_string function

 28 30  0  0  0  0  0  0  0  0999 V2000
   11.4592   11.2893   18.7941 C   0  0  0  0  0  0  0  0  0  0  0  0
    3.4202    7.9009   20.3866 C   0  0  0  0  0  0  0  0  0  0  0  0
   13.5280   10.3522   19.3586 C   0  0  0  0  0  0  0  0  0  0  0  0
    9.6923    5.6468   22.7891 C   0  0  0  0  0  0  0  0  0  0  0  0
   11.7756   10.2554   20.8841 N   0  0  0  0  0  0  0  0  0  0  0  0
    8.9876   11.9370   19.8757 O   0  0  0  0  0  0  0  0  0  0  0  0
    6.0167    8.4478   21.1089 C   0  0  0  0  0  0  0  0  0  0  0  0
   11.0002   10.8890   20.0262 C   0  0  0  0  0  0  0  0  0  0  0  0
    2.1721    7.7393   20.0315 O   0  0  0  0  0  0  0  0  0  0  0  0
    9.1107   10.3880   21.3769 N   0  0  0  0  0  0  0  0  0  0  0  0
    3.9102    9.2008   20.3124 C   0  0  0  0  0  0  0  0  0  0  0  0
   12.7292   10.9960   18.4597 C   0  0  0  0  0  0  0  0  0  0  0  0
    9.3798    6.6793   23.6625 C   0  0  0  0  0  0  0  0  0  0  0  0
   14.7425   10.0739   19.0802 O   0  0  0  0  0  0  0  0  0  0  0  0
    5.1894    9.4673   20.7118 C   0  0  0  0  0  0  0  0  0  0  0  0
    7.3773    8.8224   21.4870 C   0  0  0  0  0  0  0  0  0  0  0  0
    8.4391    6.6439   21.0235 C   0  0  0  0  0  0  0  0  0  0  0  0
    9.6494   11.1353   20.4167 C   0  0  0  0  0  0  0  0  0  0  0  0
    8.1431    7.6829   21.9046 C   0  0  0  0  0  0  0  0  0  0  0  0
    7.7796   10.1314   21.5115 N   0  0  0  0  0  0  0  0  0  0  0  0
    9.2768    5.6183   21.4437 C   0  0  0  0  0  0  0  0  0  0  0  0
    8.6315    7.7322   23.1768 C   0  0  0  0  0  0  0  0  0  0  0  0
   13.0537    9.9821   20.5781 C   0  0  0  0  0  0  0  0  0  0  0  0
   10.3850    4.6575   23.2386 O   0  0  0  0  0  0  0  0  0  0  0  0
    4.2069    6.8450   20.7994 C   0  0  0  0  0  0  0  0  0  0  0  0
    3.0726   10.1043   19.8522 O   0  0  0  0  0  0  0  0  0  0  0  0
    5.5057    7.1196   21.1155 C   0  0  0  0  0  0  0  0  0  0  0  0
    7.0367   11.0229   21.9948 O   0  0  0  0  0  0  0  0  0  0  0  0
  1  8  4  0
  1 12  4  0
  2  9  1  0
  2 11  4  0
  2 25  4  0
  3 12  4  0
  3 14  1  0
  3 23  4  0
  4 13  4  0
  4 21  4  0
  4 24  1  0
  5  8  4  0
  5 23  4  0
  6 18  2  0
  7 15  4  0
  7 16  1  0
  7 27  4  0
  8 18  1  0
 10 18  1  0
 10 20  1  0
 11 15  4  0
 11 26  1  0
 13 22  4  0
 16 19  1  0
 16 20  2  0
 17 19  4  0
 17 21  4  0
 19 22  4  0
 20 28  1  0
 25 27  4  0
M  END
$$$$

 Created by Python create_sdf_string function

 28 30  0  0  0  0  0  0  0  0999 V2000
   11.4592   11.2893   18.7941 C   0  0  0  0  0  0  0  0  0  0  0  0
    3.4202    7.9009   20.3866 C   0  0  0  0  0  0  0  0  0  0  0  0
   13.5280   10.3522   19.3586 C   0  0  0  0  0  0  0  0  0  0  0  0
    9.6923    5.6468   22.7891 C   0  0  0  0  0  0  0  0  0  0  0  0
   11.7756   10.2554   20.8841 N   0  0  0  0  0  0  0  0  0  0  0  0
    8.9876   11.9370   19.8757 O   0  0  0  0  0  0  0  0  0  0  0  0
    6.0167    8.4478   21.1089 C   0  0  0  0  0  0  0  0  0  0  0  0
   11.0002   10.8890   20.0262 C   0  0  0  0  0  0  0  0  0  0  0  0
    2.1721    7.7393   20.0315 O   0  0  0  0  0  0  0  0  0  0  0  0
    9.1107   10.3880   21.3769 N   0  0  0  0  0  0  0  0  0  0  0  0
    3.9102    9.2008   20.3124 C   0  0  0  0  0  0  0  0  0  0  0  0
   12.7292   10.9960   18.4597 C   0  0  0  0  0  0  0  0  0  0  0  0
    9.3798    6.6793   23.6625 C   0  0  0  0  0  0  0  0  0  0  0  0
   14.7425   10.0739   19.0802 O   0  0  0  0  0  0  0  0  0  0  0  0
    5.1894    9.4673   20.7118 C   0  0  0  0  0  0  0  0  0  0  0  0
    7.3773    8.8224   21.4870 C   0  0  0  0  0  0  0  0  0  0  0  0
    8.4391    6.6439   21.0235 C   0  0  0  0  0  0  0  0  0  0  0  0
    9.6494   11.1353   20.4167 C   0  0  0  0  0  0  0  0  0  0  0  0
    8.1431    7.6829   21.9046 C   0  0  0  0  0  0  0  0  0  0  0  0
    7.7796   10.1314   21.5115 N   0  0  0  0  0  0  0  0  0  0  0  0
    9.2768    5.6183   21.4437 C   0  0  0  0  0  0  0  0  0  0  0  0
    8.6315    7.7322   23.1768 C   0  0  0  0  0  0  0  0  0  0  0  0
   13.0537    9.9821   20.5781 C   0  0  0  0  0  0  0  0  0  0  0  0
   10.3850    4.6575   23.2386 O   0  0  0  0  0  0  0  0  0  0  0  0
    4.2069    6.8450   20.7994 C   0  0  0  0  0  0  0  0  0  0  0  0
    3.0726   10.1043   19.8522 O   0  0  0  0  0  0  0  0  0  0  0  0
    5.5057    7.1196   21.1155 C   0  0  0  0  0  0  0  0  0  0  0  0
    7.0367   11.0229   21.9948 O   0  0  0  0  0  0  0  0  0  0  0  0
  1  8  4  0
  1 12  4  0
  2  9  1  0
  2 11  4  0
  2 25  4  0
  3 12  4  0
  3 14  1  0
  3 23  4  0
  4 13  4  0
  4 21  4  0
  4 24  1  0
  5  8  4  0
  5 23  4  0
  6 18  2  0
  7 15  4  0
  7 16  1  0
  7 27  4  0
  8 18  1  0
 10 18  1  0
 10 20  1  0
 11 15  4  0
 11 26  1  0
 13 22  4  0
 16 19  1  0
 16 20  2  0
 17 19  4  0
 17 21  4  0
 19 22  4  0
 20 28  1  0
 25 27  4  0
M  END
$$$$

 Created by Python create_sdf_string function

 28 30  0  0  0  0  0  0  0  0999 V2000
   11.4592   11.2893   18.7941 C   0  0  0  0  0  0  0  0  0  0  0  0
    3.4202    7.9009   20.3866 C   0  0  0  0  0  0  0  0  0  0  0  0
   13.5280   10.3522   19.3586 C   0  0  0  0  0  0  0  0  0  0  0  0
    9.6923    5.6468   22.7891 C   0  0  0  0  0  0  0  0  0  0  0  0
   11.7756   10.2554   20.8841 N   0  0  0  0  0  0  0  0  0  0  0  0
    8.9876   11.9370   19.8757 O   0  0  0  0  0  0  0  0  0  0  0  0
    6.0167    8.4478   21.1089 C   0  0  0  0  0  0  0  0  0  0  0  0
   11.0002   10.8890   20.0262 C   0  0  0  0  0  0  0  0  0  0  0  0
    2.1721    7.7393   20.0315 O   0  0  0  0  0  0  0  0  0  0  0  0
    9.1107   10.3880   21.3769 N   0  0  0  0  0  0  0  0  0  0  0  0
    3.9102    9.2008   20.3124 C   0  0  0  0  0  0  0  0  0  0  0  0
   12.7292   10.9960   18.4597 C   0  0  0  0  0  0  0  0  0  0  0  0
    9.3798    6.6793   23.6625 C   0  0  0  0  0  0  0  0  0  0  0  0
   14.7425   10.0739   19.0802 O   0  0  0  0  0  0  0  0  0  0  0  0
    5.1894    9.4673   20.7118 C   0  0  0  0  0  0  0  0  0  0  0  0
    7.3773    8.8224   21.4870 C   0  0  0  0  0  0  0  0  0  0  0  0
    8.4391    6.6439   21.0235 C   0  0  0  0  0  0  0  0  0  0  0  0
    9.6494   11.1353   20.4167 C   0  0  0  0  0  0  0  0  0  0  0  0
    8.1431    7.6829   21.9046 C   0  0  0  0  0  0  0  0  0  0  0  0
    7.7796   10.1314   21.5115 N   0  0  0  0  0  0  0  0  0  0  0  0
    9.2768    5.6183   21.4437 C   0  0  0  0  0  0  0  0  0  0  0  0
    8.6315    7.7322   23.1768 C   0  0  0  0  0  0  0  0  0  0  0  0
   13.0537    9.9821   20.5781 C   0  0  0  0  0  0  0  0  0  0  0  0
   10.3850    4.6575   23.2386 O   0  0  0  0  0  0  0  0  0  0  0  0
    4.2069    6.8450   20.7994 C   0  0  0  0  0  0  0  0  0  0  0  0
    3.0726   10.1043   19.8522 O   0  0  0  0  0  0  0  0  0  0  0  0
    5.5057    7.1196   21.1155 C   0  0  0  0  0  0  0  0  0  0  0  0
    7.0367   11.0229   21.9948 O   0  0  0  0  0  0  0  0  0  0  0  0
  1  8  4  0
  1 12  4  0
  2  9  1  0
  2 11  4  0
  2 25  4  0
  3 12  4  0
  3 14  1  0
  3 23  4  0
  4 13  4  0
  4 21  4  0
  4 24  1  0
  5  8  4  0
  5 23  4  0
  6 18  2  0
  7 15  4  0
  7 16  1  0
  7 27  4  0
  8 18  1  0
 10 18  1  0
 10 20  1  0
 11 15  4  0
 11 26  1  0
 13 22  4  0
 16 19  1  0
 16 20  2  0
 17 19  4  0
 17 21  4  0
 19 22  4  0
 20 28  1  0
 25 27  4  0
M  END
$$$$

 Created by Python create_sdf_string function

 28 30  0  0  0  0  0  0  0  0999 V2000
   11.4592   11.2893   18.7941 C   0  0  0  0  0  0  0  0  0  0  0  0
    3.4202    7.9009   20.3866 C   0  0  0  0  0  0  0  0  0  0  0  0
   13.5280   10.3522   19.3586 C   0  0  0  0  0  0  0  0  0  0  0  0
    9.6923    5.6468   22.7891 C   0  0  0  0  0  0  0  0  0  0  0  0
   11.7756   10.2554   20.8841 N   0  0  0  0  0  0  0  0  0  0  0  0
    8.9876   11.9370   19.8757 O   0  0  0  0  0  0  0  0  0  0  0  0
    6.0167    8.4478   21.1089 C   0  0  0  0  0  0  0  0  0  0  0  0
   11.0002   10.8890   20.0262 C   0  0  0  0  0  0  0  0  0  0  0  0
    2.1721    7.7393   20.0315 O   0  0  0  0  0  0  0  0  0  0  0  0
    9.1107   10.3880   21.3769 N   0  0  0  0  0  0  0  0  0  0  0  0
    3.9102    9.2008   20.3124 C   0  0  0  0  0  0  0  0  0  0  0  0
   12.7292   10.9960   18.4597 C   0  0  0  0  0  0  0  0  0  0  0  0
    9.3798    6.6793   23.6625 C   0  0  0  0  0  0  0  0  0  0  0  0
   14.7425   10.0739   19.0802 O   0  0  0  0  0  0  0  0  0  0  0  0
    5.1894    9.4673   20.7118 C   0  0  0  0  0  0  0  0  0  0  0  0
    7.3773    8.8224   21.4870 C   0  0  0  0  0  0  0  0  0  0  0  0
    8.4391    6.6439   21.0235 C   0  0  0  0  0  0  0  0  0  0  0  0
    9.6494   11.1353   20.4167 C   0  0  0  0  0  0  0  0  0  0  0  0
    8.1431    7.6829   21.9046 C   0  0  0  0  0  0  0  0  0  0  0  0
    7.7796   10.1314   21.5115 N   0  0  0  0  0  0  0  0  0  0  0  0
    9.2768    5.6183   21.4437 C   0  0  0  0  0  0  0  0  0  0  0  0
    8.6315    7.7322   23.1768 C   0  0  0  0  0  0  0  0  0  0  0  0
   13.0537    9.9821   20.5781 C   0  0  0  0  0  0  0  0  0  0  0  0
   10.3850    4.6575   23.2386 O   0  0  0  0  0  0  0  0  0  0  0  0
    4.2069    6.8450   20.7994 C   0  0  0  0  0  0  0  0  0  0  0  0
    3.0726   10.1043   19.8522 O   0  0  0  0  0  0  0  0  0  0  0  0
    5.5057    7.1196   21.1155 C   0  0  0  0  0  0  0  0  0  0  0  0
    7.0367   11.0229   21.9948 O   0  0  0  0  0  0  0  0  0  0  0  0
  1  8  4  0
  1 12  4  0
  2  9  1  0
  2 11  4  0
  2 25  4  0
  3 12  4  0
  3 14  1  0
  3 23  4  0
  4 13  4  0
  4 21  4  0
  4 24  1  0
  5  8  4  0
  5 23  4  0
  6 18  2  0
  7 15  4  0
  7 16  1  0
  7 27  4  0
  8 18  1  0
 10 18  1  0
 10 20  1  0
 11 15  4  0
 11 26  1  0
 13 22  4  0
 16 19  1  0
 16 20  2  0
 17 19  4  0
 17 21  4  0
 19 22  4  0
 20 28  1  0
 25 27  4  0
M  END
$$$$

 Created by Python create_sdf_string function

 28 30  0  0  0  0  0  0  0  0999 V2000
   11.4592   11.2893   18.7941 C   0  0  0  0  0  0  0  0  0  0  0  0
    3.4202    7.9009   20.3866 C   0  0  0  0  0  0  0  0  0  0  0  0
   13.5280   10.3522   19.3586 C   0  0  0  0  0  0  0  0  0  0  0  0
    9.6923    5.6468   22.7891 C   0  0  0  0  0  0  0  0  0  0  0  0
   11.7756   10.2554   20.8841 N   0  0  0  0  0  0  0  0  0  0  0  0
    8.9876   11.9370   19.8757 O   0  0  0  0  0  0  0  0  0  0  0  0
    6.0167    8.4478   21.1089 C   0  0  0  0  0  0  0  0  0  0  0  0
   11.0002   10.8890   20.0262 C   0  0  0  0  0  0  0  0  0  0  0  0
    2.1721    7.7393   20.0315 O   0  0  0  0  0  0  0  0  0  0  0  0
    9.1107   10.3880   21.3769 N   0  0  0  0  0  0  0  0  0  0  0  0
    3.9102    9.2008   20.3124 C   0  0  0  0  0  0  0  0  0  0  0  0
   12.7292   10.9960   18.4597 C   0  0  0  0  0  0  0  0  0  0  0  0
    9.3798    6.6793   23.6625 C   0  0  0  0  0  0  0  0  0  0  0  0
   14.7425   10.0739   19.0802 O   0  0  0  0  0  0  0  0  0  0  0  0
    5.1894    9.4673   20.7118 C   0  0  0  0  0  0  0  0  0  0  0  0
    7.3773    8.8224   21.4870 C   0  0  0  0  0  0  0  0  0  0  0  0
    8.4391    6.6439   21.0235 C   0  0  0  0  0  0  0  0  0  0  0  0
    9.6494   11.1353   20.4167 C   0  0  0  0  0  0  0  0  0  0  0  0
    8.1431    7.6829   21.9046 C   0  0  0  0  0  0  0  0  0  0  0  0
    7.7796   10.1314   21.5115 N   0  0  0  0  0  0  0  0  0  0  0  0
    9.2768    5.6183   21.4437 C   0  0  0  0  0  0  0  0  0  0  0  0
    8.6315    7.7322   23.1768 C   0  0  0  0  0  0  0  0  0  0  0  0
   13.0537    9.9821   20.5781 C   0  0  0  0  0  0  0  0  0  0  0  0
   10.3850    4.6575   23.2386 O   0  0  0  0  0  0  0  0  0  0  0  0
    4.2069    6.8450   20.7994 C   0  0  0  0  0  0  0  0  0  0  0  0
    3.0726   10.1043   19.8522 O   0  0  0  0  0  0  0  0  0  0  0  0
    5.5057    7.1196   21.1155 C   0  0  0  0  0  0  0  0  0  0  0  0
    7.0367   11.0229   21.9948 O   0  0  0  0  0  0  0  0  0  0  0  0
  1  8  4  0
  1 12  4  0
  2  9  1  0
  2 11  4  0
  2 25  4  0
  3 12  4  0
  3 14  1  0
  3 23  4  0
  4 13  4  0
  4 21  4  0
  4 24  1  0
  5  8  4  0
  5 23  4  0
  6 18  2  0
  7 15  4  0
  7 16  1  0
  7 27  4  0
  8 18  1  0
 10 18  1  0
 10 20  1  0
 11 15  4  0
 11 26  1  0
 13 22  4  0
 16 19  1  0
 16 20  2  0
 17 19  4  0
 17 21  4  0
 19 22  4  0
 20 28  1  0
 25 27  4  0
M  END
$$$$

 Created by Python create_sdf_string function

 28 30  0  0  0  0  0  0  0  0999 V2000
   11.4592   11.2893   18.7941 C   0  0  0  0  0  0  0  0  0  0  0  0
    3.4202    7.9009   20.3866 C   0  0  0  0  0  0  0  0  0  0  0  0
   13.5280   10.3522   19.3586 C   0  0  0  0  0  0  0  0  0  0  0  0
    9.6923    5.6468   22.7891 C   0  0  0  0  0  0  0  0  0  0  0  0
   11.7756   10.2554   20.8841 N   0  0  0  0  0  0  0  0  0  0  0  0
    8.9876   11.9370   19.8757 O   0  0  0  0  0  0  0  0  0  0  0  0
    6.0167    8.4478   21.1089 C   0  0  0  0  0  0  0  0  0  0  0  0
   11.0002   10.8890   20.0262 C   0  0  0  0  0  0  0  0  0  0  0  0
    2.1721    7.7393   20.0315 O   0  0  0  0  0  0  0  0  0  0  0  0
    9.1107   10.3880   21.3769 N   0  0  0  0  0  0  0  0  0  0  0  0
    3.9102    9.2008   20.3124 C   0  0  0  0  0  0  0  0  0  0  0  0
   12.7292   10.9960   18.4597 C   0  0  0  0  0  0  0  0  0  0  0  0
    9.3798    6.6793   23.6625 C   0  0  0  0  0  0  0  0  0  0  0  0
   14.7425   10.0739   19.0802 O   0  0  0  0  0  0  0  0  0  0  0  0
    5.1894    9.4673   20.7118 C   0  0  0  0  0  0  0  0  0  0  0  0
    7.3773    8.8224   21.4870 C   0  0  0  0  0  0  0  0  0  0  0  0
    8.4391    6.6439   21.0235 C   0  0  0  0  0  0  0  0  0  0  0  0
    9.6494   11.1353   20.4167 C   0  0  0  0  0  0  0  0  0  0  0  0
    8.1431    7.6829   21.9046 C   0  0  0  0  0  0  0  0  0  0  0  0
    7.7796   10.1314   21.5115 N   0  0  0  0  0  0  0  0  0  0  0  0
    9.2768    5.6183   21.4437 C   0  0  0  0  0  0  0  0  0  0  0  0
    8.6315    7.7322   23.1768 C   0  0  0  0  0  0  0  0  0  0  0  0
   13.0537    9.9821   20.5781 C   0  0  0  0  0  0  0  0  0  0  0  0
   10.3850    4.6575   23.2386 O   0  0  0  0  0  0  0  0  0  0  0  0
    4.2069    6.8450   20.7994 C   0  0  0  0  0  0  0  0  0  0  0  0
    3.0726   10.1043   19.8522 O   0  0  0  0  0  0  0  0  0  0  0  0
    5.5057    7.1196   21.1155 C   0  0  0  0  0  0  0  0  0  0  0  0
    7.0367   11.0229   21.9948 O   0  0  0  0  0  0  0  0  0  0  0  0
  1  8  4  0
  1 12  4  0
  2  9  1  0
  2 11  4  0
  2 25  4  0
  3 12  4  0
  3 14  1  0
  3 23  4  0
  4 13  4  0
  4 21  4  0
  4 24  1  0
  5  8  4  0
  5 23  4  0
  6 18  2  0
  7 15  4  0
  7 16  1  0
  7 27  4  0
  8 18  1  0
 10 18  1  0
 10 20  1  0
 11 15  4  0
 11 26  1  0
 13 22  4  0
 16 19  1  0
 16 20  2  0
 17 19  4  0
 17 21  4  0
 19 22  4  0
 20 28  1  0
 25 27  4  0
M  END
$$$$

 Created by Python create_sdf_string function

 28 30  0  0  0  0  0  0  0  0999 V2000
   11.4592   11.2893   18.7941 C   0  0  0  0  0  0  0  0  0  0  0  0
    3.4202    7.9009   20.3866 C   0  0  0  0  0  0  0  0  0  0  0  0
   13.5280   10.3522   19.3586 C   0  0  0  0  0  0  0  0  0  0  0  0
    9.6923    5.6468   22.7891 C   0  0  0  0  0  0  0  0  0  0  0  0
   11.7756   10.2554   20.8841 N   0  0  0  0  0  0  0  0  0  0  0  0
    8.9876   11.9370   19.8757 O   0  0  0  0  0  0  0  0  0  0  0  0
    6.0167    8.4478   21.1089 C   0  0  0  0  0  0  0  0  0  0  0  0
   11.0002   10.8890   20.0262 C   0  0  0  0  0  0  0  0  0  0  0  0
    2.1721    7.7393   20.0315 O   0  0  0  0  0  0  0  0  0  0  0  0
    9.1107   10.3880   21.3769 N   0  0  0  0  0  0  0  0  0  0  0  0
    3.9102    9.2008   20.3124 C   0  0  0  0  0  0  0  0  0  0  0  0
   12.7292   10.9960   18.4597 C   0  0  0  0  0  0  0  0  0  0  0  0
    9.3798    6.6793   23.6625 C   0  0  0  0  0  0  0  0  0  0  0  0
   14.7425   10.0739   19.0802 O   0  0  0  0  0  0  0  0  0  0  0  0
    5.1894    9.4673   20.7118 C   0  0  0  0  0  0  0  0  0  0  0  0
    7.3773    8.8224   21.4870 C   0  0  0  0  0  0  0  0  0  0  0  0
    8.4391    6.6439   21.0235 C   0  0  0  0  0  0  0  0  0  0  0  0
    9.6494   11.1353   20.4167 C   0  0  0  0  0  0  0  0  0  0  0  0
    8.1431    7.6829   21.9046 C   0  0  0  0  0  0  0  0  0  0  0  0
    7.7796   10.1314   21.5115 N   0  0  0  0  0  0  0  0  0  0  0  0
    9.2768    5.6183   21.4437 C   0  0  0  0  0  0  0  0  0  0  0  0
    8.6315    7.7322   23.1768 C   0  0  0  0  0  0  0  0  0  0  0  0
   13.0537    9.9821   20.5781 C   0  0  0  0  0  0  0  0  0  0  0  0
   10.3850    4.6575   23.2386 O   0  0  0  0  0  0  0  0  0  0  0  0
    4.2069    6.8450   20.7994 C   0  0  0  0  0  0  0  0  0  0  0  0
    3.0726   10.1043   19.8522 O   0  0  0  0  0  0  0  0  0  0  0  0
    5.5057    7.1196   21.1155 C   0  0  0  0  0  0  0  0  0  0  0  0
    7.0367   11.0229   21.9948 O   0  0  0  0  0  0  0  0  0  0  0  0
  1  8  4  0
  1 12  4  0
  2  9  1  0
  2 11  4  0
  2 25  4  0
  3 12  4  0
  3 14  1  0
  3 23  4  0
  4 13  4  0
  4 21  4  0
  4 24  1  0
  5  8  4  0
  5 23  4  0
  6 18  2  0
  7 15  4  0
  7 16  1  0
  7 27  4  0
  8 18  1  0
 10 18  1  0
 10 20  1  0
 11 15  4  0
 11 26  1  0
 13 22  4  0
 16 19  1  0
 16 20  2  0
 17 19  4  0
 17 21  4  0
 19 22  4  0
 20 28  1  0
 25 27  4  0
M  END
$$$$

 Created by Python create_sdf_string function

 28 30  0  0  0  0  0  0  0  0999 V2000
   11.4592   11.2893   18.7941 C   0  0  0  0  0  0  0  0  0  0  0  0
    3.4202    7.9009   20.3866 C   0  0  0  0  0  0  0  0  0  0  0  0
   13.5280   10.3522   19.3586 C   0  0  0  0  0  0  0  0  0  0  0  0
    9.6923    5.6468   22.7891 C   0  0  0  0  0  0  0  0  0  0  0  0
   11.7756   10.2554   20.8841 N   0  0  0  0  0  0  0  0  0  0  0  0
    8.9876   11.9370   19.8757 O   0  0  0  0  0  0  0  0  0  0  0  0
    6.0167    8.4478   21.1089 C   0  0  0  0  0  0  0  0  0  0  0  0
   11.0002   10.8890   20.0262 C   0  0  0  0  0  0  0  0  0  0  0  0
    2.1721    7.7393   20.0315 O   0  0  0  0  0  0  0  0  0  0  0  0
    9.1107   10.3880   21.3769 N   0  0  0  0  0  0  0  0  0  0  0  0
    3.9102    9.2008   20.3124 C   0  0  0  0  0  0  0  0  0  0  0  0
   12.7292   10.9960   18.4597 C   0  0  0  0  0  0  0  0  0  0  0  0
    9.3798    6.6793   23.6625 C   0  0  0  0  0  0  0  0  0  0  0  0
   14.7425   10.0739   19.0802 O   0  0  0  0  0  0  0  0  0  0  0  0
    5.1894    9.4673   20.7118 C   0  0  0  0  0  0  0  0  0  0  0  0
    7.3773    8.8224   21.4870 C   0  0  0  0  0  0  0  0  0  0  0  0
    8.4391    6.6439   21.0235 C   0  0  0  0  0  0  0  0  0  0  0  0
    9.6494   11.1353   20.4167 C   0  0  0  0  0  0  0  0  0  0  0  0
    8.1431    7.6829   21.9046 C   0  0  0  0  0  0  0  0  0  0  0  0
    7.7796   10.1314   21.5115 N   0  0  0  0  0  0  0  0  0  0  0  0
    9.2768    5.6183   21.4437 C   0  0  0  0  0  0  0  0  0  0  0  0
    8.6315    7.7322   23.1768 C   0  0  0  0  0  0  0  0  0  0  0  0
   13.0537    9.9821   20.5781 C   0  0  0  0  0  0  0  0  0  0  0  0
   10.3850    4.6575   23.2386 O   0  0  0  0  0  0  0  0  0  0  0  0
    4.2069    6.8450   20.7994 C   0  0  0  0  0  0  0  0  0  0  0  0
    3.0726   10.1043   19.8522 O   0  0  0  0  0  0  0  0  0  0  0  0
    5.5057    7.1196   21.1155 C   0  0  0  0  0  0  0  0  0  0  0  0
    7.0367   11.0229   21.9948 O   0  0  0  0  0  0  0  0  0  0  0  0
  1  8  4  0
  1 12  4  0
  2  9  1  0
  2 11  4  0
  2 25  4  0
  3 12  4  0
  3 14  1  0
  3 23  4  0
  4 13  4  0
  4 21  4  0
  4 24  1  0
  5  8  4  0
  5 23  4  0
  6 18  2  0
  7 15  4  0
  7 16  1  0
  7 27  4  0
  8 18  1  0
 10 18  1  0
 10 20  1  0
 11 15  4  0
 11 26  1  0
 13 22  4  0
 16 19  1  0
 16 20  2  0
 17 19  4  0
 17 21  4  0
 19 22  4  0
 20 28  1  0
 25 27  4  0
M  END
$$$$

 Created by Python create_sdf_string function

 28 30  0  0  0  0  0  0  0  0999 V2000
   11.4592   11.2893   18.7941 C   0  0  0  0  0  0  0  0  0  0  0  0
    3.4202    7.9009   20.3866 C   0  0  0  0  0  0  0  0  0  0  0  0
   13.5280   10.3522   19.3586 C   0  0  0  0  0  0  0  0  0  0  0  0
    9.6923    5.6468   22.7891 C   0  0  0  0  0  0  0  0  0  0  0  0
   11.7756   10.2554   20.8841 N   0  0  0  0  0  0  0  0  0  0  0  0
    8.9876   11.9370   19.8757 O   0  0  0  0  0  0  0  0  0  0  0  0
    6.0167    8.4478   21.1089 C   0  0  0  0  0  0  0  0  0  0  0  0
   11.0002   10.8890   20.0262 C   0  0  0  0  0  0  0  0  0  0  0  0
    2.1721    7.7393   20.0315 O   0  0  0  0  0  0  0  0  0  0  0  0
    9.1107   10.3880   21.3769 N   0  0  0  0  0  0  0  0  0  0  0  0
    3.9102    9.2008   20.3124 C   0  0  0  0  0  0  0  0  0  0  0  0
   12.7292   10.9960   18.4597 C   0  0  0  0  0  0  0  0  0  0  0  0
    9.3798    6.6793   23.6625 C   0  0  0  0  0  0  0  0  0  0  0  0
   14.7425   10.0739   19.0802 O   0  0  0  0  0  0  0  0  0  0  0  0
    5.1894    9.4673   20.7118 C   0  0  0  0  0  0  0  0  0  0  0  0
    7.3773    8.8224   21.4870 C   0  0  0  0  0  0  0  0  0  0  0  0
    8.4391    6.6439   21.0235 C   0  0  0  0  0  0  0  0  0  0  0  0
    9.6494   11.1353   20.4167 C   0  0  0  0  0  0  0  0  0  0  0  0
    8.1431    7.6829   21.9046 C   0  0  0  0  0  0  0  0  0  0  0  0
    7.7796   10.1314   21.5115 N   0  0  0  0  0  0  0  0  0  0  0  0
    9.2768    5.6183   21.4437 C   0  0  0  0  0  0  0  0  0  0  0  0
    8.6315    7.7322   23.1768 C   0  0  0  0  0  0  0  0  0  0  0  0
   13.0537    9.9821   20.5781 C   0  0  0  0  0  0  0  0  0  0  0  0
   10.3850    4.6575   23.2386 O   0  0  0  0  0  0  0  0  0  0  0  0
    4.2069    6.8450   20.7994 C   0  0  0  0  0  0  0  0  0  0  0  0
    3.0726   10.1043   19.8522 O   0  0  0  0  0  0  0  0  0  0  0  0
    5.5057    7.1196   21.1155 C   0  0  0  0  0  0  0  0  0  0  0  0
    7.0367   11.0229   21.9948 O   0  0  0  0  0  0  0  0  0  0  0  0
  1  8  4  0
  1 12  4  0
  2  9  1  0
  2 11  4  0
  2 25  4  0
  3 12  4  0
  3 14  1  0
  3 23  4  0
  4 13  4  0
  4 21  4  0
  4 24  1  0
  5  8  4  0
  5 23  4  0
  6 18  2  0
  7 15  4  0
  7 16  1  0
  7 27  4  0
  8 18  1  0
 10 18  1  0
 10 20  1  0
 11 15  4  0
 11 26  1  0
 13 22  4  0
 16 19  1  0
 16 20  2  0
 17 19  4  0
 17 21  4  0
 19 22  4  0
 20 28  1  0
 25 27  4  0
M  END
$$$$

 Created by Python create_sdf_string function

 28 30  0  0  0  0  0  0  0  0999 V2000
   11.4592   11.2893   18.7941 C   0  0  0  0  0  0  0  0  0  0  0  0
    3.4202    7.9009   20.3866 C   0  0  0  0  0  0  0  0  0  0  0  0
   13.5280   10.3522   19.3586 C   0  0  0  0  0  0  0  0  0  0  0  0
    9.6923    5.6468   22.7891 C   0  0  0  0  0  0  0  0  0  0  0  0
   11.7756   10.2554   20.8841 N   0  0  0  0  0  0  0  0  0  0  0  0
    8.9876   11.9370   19.8757 O   0  0  0  0  0  0  0  0  0  0  0  0
    6.0167    8.4478   21.1089 C   0  0  0  0  0  0  0  0  0  0  0  0
   11.0002   10.8890   20.0262 C   0  0  0  0  0  0  0  0  0  0  0  0
    2.1721    7.7393   20.0315 O   0  0  0  0  0  0  0  0  0  0  0  0
    9.1107   10.3880   21.3769 N   0  0  0  0  0  0  0  0  0  0  0  0
    3.9102    9.2008   20.3124 C   0  0  0  0  0  0  0  0  0  0  0  0
   12.7292   10.9960   18.4597 C   0  0  0  0  0  0  0  0  0  0  0  0
    9.3798    6.6793   23.6625 C   0  0  0  0  0  0  0  0  0  0  0  0
   14.7425   10.0739   19.0802 O   0  0  0  0  0  0  0  0  0  0  0  0
    5.1894    9.4673   20.7118 C   0  0  0  0  0  0  0  0  0  0  0  0
    7.3773    8.8224   21.4870 C   0  0  0  0  0  0  0  0  0  0  0  0
    8.4391    6.6439   21.0235 C   0  0  0  0  0  0  0  0  0  0  0  0
    9.6494   11.1353   20.4167 C   0  0  0  0  0  0  0  0  0  0  0  0
    8.1431    7.6829   21.9046 C   0  0  0  0  0  0  0  0  0  0  0  0
    7.7796   10.1314   21.5115 N   0  0  0  0  0  0  0  0  0  0  0  0
    9.2768    5.6183   21.4437 C   0  0  0  0  0  0  0  0  0  0  0  0
    8.6315    7.7322   23.1768 C   0  0  0  0  0  0  0  0  0  0  0  0
   13.0537    9.9821   20.5781 C   0  0  0  0  0  0  0  0  0  0  0  0
   10.3850    4.6575   23.2386 O   0  0  0  0  0  0  0  0  0  0  0  0
    4.2069    6.8450   20.7994 C   0  0  0  0  0  0  0  0  0  0  0  0
    3.0726   10.1043   19.8522 O   0  0  0  0  0  0  0  0  0  0  0  0
    5.5057    7.1196   21.1155 C   0  0  0  0  0  0  0  0  0  0  0  0
    7.0367   11.0229   21.9948 O   0  0  0  0  0  0  0  0  0  0  0  0
  1  8  4  0
  1 12  4  0
  2  9  1  0
  2 11  4  0
  2 25  4  0
  3 12  4  0
  3 14  1  0
  3 23  4  0
  4 13  4  0
  4 21  4  0
  4 24  1  0
  5  8  4  0
  5 23  4  0
  6 18  2  0
  7 15  4  0
  7 16  1  0
  7 27  4  0
  8 18  1  0
 10 18  1  0
 10 20  1  0
 11 15  4  0
 11 26  1  0
 13 22  4  0
 16 19  1  0
 16 20  2  0
 17 19  4  0
 17 21  4  0
 19 22  4  0
 20 28  1  0
 25 27  4  0
M  END
$$$$

 Created by Python create_sdf_string function

 28 30  0  0  0  0  0  0  0  0999 V2000
   11.4592   11.2893   18.7941 C   0  0  0  0  0  0  0  0  0  0  0  0
    3.4202    7.9009   20.3866 C   0  0  0  0  0  0  0  0  0  0  0  0
   13.5280   10.3522   19.3586 C   0  0  0  0  0  0  0  0  0  0  0  0
    9.6923    5.6468   22.7891 C   0  0  0  0  0  0  0  0  0  0  0  0
   11.7756   10.2554   20.8841 N   0  0  0  0  0  0  0  0  0  0  0  0
    8.9876   11.9370   19.8757 O   0  0  0  0  0  0  0  0  0  0  0  0
    6.0167    8.4478   21.1089 C   0  0  0  0  0  0  0  0  0  0  0  0
   11.0002   10.8890   20.0262 C   0  0  0  0  0  0  0  0  0  0  0  0
    2.1721    7.7393   20.0315 O   0  0  0  0  0  0  0  0  0  0  0  0
    9.1107   10.3880   21.3769 N   0  0  0  0  0  0  0  0  0  0  0  0
    3.9102    9.2008   20.3124 C   0  0  0  0  0  0  0  0  0  0  0  0
   12.7292   10.9960   18.4597 C   0  0  0  0  0  0  0  0  0  0  0  0
    9.3798    6.6793   23.6625 C   0  0  0  0  0  0  0  0  0  0  0  0
   14.7425   10.0739   19.0802 O   0  0  0  0  0  0  0  0  0  0  0  0
    5.1894    9.4673   20.7118 C   0  0  0  0  0  0  0  0  0  0  0  0
    7.3773    8.8224   21.4870 C   0  0  0  0  0  0  0  0  0  0  0  0
    8.4391    6.6439   21.0235 C   0  0  0  0  0  0  0  0  0  0  0  0
    9.6494   11.1353   20.4167 C   0  0  0  0  0  0  0  0  0  0  0  0
    8.1431    7.6829   21.9046 C   0  0  0  0  0  0  0  0  0  0  0  0
    7.7796   10.1314   21.5115 N   0  0  0  0  0  0  0  0  0  0  0  0
    9.2768    5.6183   21.4437 C   0  0  0  0  0  0  0  0  0  0  0  0
    8.6315    7.7322   23.1768 C   0  0  0  0  0  0  0  0  0  0  0  0
   13.0537    9.9821   20.5781 C   0  0  0  0  0  0  0  0  0  0  0  0
   10.3850    4.6575   23.2386 O   0  0  0  0  0  0  0  0  0  0  0  0
    4.2069    6.8450   20.7994 C   0  0  0  0  0  0  0  0  0  0  0  0
    3.0726   10.1043   19.8522 O   0  0  0  0  0  0  0  0  0  0  0  0
    5.5057    7.1196   21.1155 C   0  0  0  0  0  0  0  0  0  0  0  0
    7.0367   11.0229   21.9948 O   0  0  0  0  0  0  0  0  0  0  0  0
  1  8  4  0
  1 12  4  0
  2  9  1  0
  2 11  4  0
  2 25  4  0
  3 12  4  0
  3 14  1  0
  3 23  4  0
  4 13  4  0
  4 21  4  0
  4 24  1  0
  5  8  4  0
  5 23  4  0
  6 18  2  0
  7 15  4  0
  7 16  1  0
  7 27  4  0
  8 18  1  0
 10 18  1  0
 10 20  1  0
 11 15  4  0
 11 26  1  0
 13 22  4  0
 16 19  1  0
 16 20  2  0
 17 19  4  0
 17 21  4  0
 19 22  4  0
 20 28  1  0
 25 27  4  0
M  END
$$$$

 Created by Python create_sdf_string function

 28 30  0  0  0  0  0  0  0  0999 V2000
   11.4592   11.2893   18.7941 C   0  0  0  0  0  0  0  0  0  0  0  0
    3.4202    7.9009   20.3866 C   0  0  0  0  0  0  0  0  0  0  0  0
   13.5280   10.3522   19.3586 C   0  0  0  0  0  0  0  0  0  0  0  0
    9.6923    5.6468   22.7891 C   0  0  0  0  0  0  0  0  0  0  0  0
   11.7756   10.2554   20.8841 N   0  0  0  0  0  0  0  0  0  0  0  0
    8.9876   11.9370   19.8757 O   0  0  0  0  0  0  0  0  0  0  0  0
    6.0167    8.4478   21.1089 C   0  0  0  0  0  0  0  0  0  0  0  0
   11.0002   10.8890   20.0262 C   0  0  0  0  0  0  0  0  0  0  0  0
    2.1721    7.7393   20.0315 O   0  0  0  0  0  0  0  0  0  0  0  0
    9.1107   10.3880   21.3769 N   0  0  0  0  0  0  0  0  0  0  0  0
    3.9102    9.2008   20.3124 C   0  0  0  0  0  0  0  0  0  0  0  0
   12.7292   10.9960   18.4597 C   0  0  0  0  0  0  0  0  0  0  0  0
    9.3798    6.6793   23.6625 C   0  0  0  0  0  0  0  0  0  0  0  0
   14.7425   10.0739   19.0802 O   0  0  0  0  0  0  0  0  0  0  0  0
    5.1894    9.4673   20.7118 C   0  0  0  0  0  0  0  0  0  0  0  0
    7.3773    8.8224   21.4870 C   0  0  0  0  0  0  0  0  0  0  0  0
    8.4391    6.6439   21.0235 C   0  0  0  0  0  0  0  0  0  0  0  0
    9.6494   11.1353   20.4167 C   0  0  0  0  0  0  0  0  0  0  0  0
    8.1431    7.6829   21.9046 C   0  0  0  0  0  0  0  0  0  0  0  0
    7.7796   10.1314   21.5115 N   0  0  0  0  0  0  0  0  0  0  0  0
    9.2768    5.6183   21.4437 C   0  0  0  0  0  0  0  0  0  0  0  0
    8.6315    7.7322   23.1768 C   0  0  0  0  0  0  0  0  0  0  0  0
   13.0537    9.9821   20.5781 C   0  0  0  0  0  0  0  0  0  0  0  0
   10.3850    4.6575   23.2386 O   0  0  0  0  0  0  0  0  0  0  0  0
    4.2069    6.8450   20.7994 C   0  0  0  0  0  0  0  0  0  0  0  0
    3.0726   10.1043   19.8522 O   0  0  0  0  0  0  0  0  0  0  0  0
    5.5057    7.1196   21.1155 C   0  0  0  0  0  0  0  0  0  0  0  0
    7.0367   11.0229   21.9948 O   0  0  0  0  0  0  0  0  0  0  0  0
  1  8  4  0
  1 12  4  0
  2  9  1  0
  2 11  4  0
  2 25  4  0
  3 12  4  0
  3 14  1  0
  3 23  4  0
  4 13  4  0
  4 21  4  0
  4 24  1  0
  5  8  4  0
  5 23  4  0
  6 18  2  0
  7 15  4  0
  7 16  1  0
  7 27  4  0
  8 18  1  0
 10 18  1  0
 10 20  1  0
 11 15  4  0
 11 26  1  0
 13 22  4  0
 16 19  1  0
 16 20  2  0
 17 19  4  0
 17 21  4  0
 19 22  4  0
 20 28  1  0
 25 27  4  0
M  END
$$$$

 Created by Python create_sdf_string function

 28 30  0  0  0  0  0  0  0  0999 V2000
   11.4592   11.2893   18.7941 C   0  0  0  0  0  0  0  0  0  0  0  0
    3.4202    7.9009   20.3866 C   0  0  0  0  0  0  0  0  0  0  0  0
   13.5280   10.3522   19.3586 C   0  0  0  0  0  0  0  0  0  0  0  0
    9.6923    5.6468   22.7891 C   0  0  0  0  0  0  0  0  0  0  0  0
   11.7756   10.2554   20.8841 N   0  0  0  0  0  0  0  0  0  0  0  0
    8.9876   11.9370   19.8757 O   0  0  0  0  0  0  0  0  0  0  0  0
    6.0167    8.4478   21.1089 C   0  0  0  0  0  0  0  0  0  0  0  0
   11.0002   10.8890   20.0262 C   0  0  0  0  0  0  0  0  0  0  0  0
    2.1721    7.7393   20.0315 O   0  0  0  0  0  0  0  0  0  0  0  0
    9.1107   10.3880   21.3769 N   0  0  0  0  0  0  0  0  0  0  0  0
    3.9102    9.2008   20.3124 C   0  0  0  0  0  0  0  0  0  0  0  0
   12.7292   10.9960   18.4597 C   0  0  0  0  0  0  0  0  0  0  0  0
    9.3798    6.6793   23.6625 C   0  0  0  0  0  0  0  0  0  0  0  0
   14.7425   10.0739   19.0802 O   0  0  0  0  0  0  0  0  0  0  0  0
    5.1894    9.4673   20.7118 C   0  0  0  0  0  0  0  0  0  0  0  0
    7.3773    8.8224   21.4870 C   0  0  0  0  0  0  0  0  0  0  0  0
    8.4391    6.6439   21.0235 C   0  0  0  0  0  0  0  0  0  0  0  0
    9.6494   11.1353   20.4167 C   0  0  0  0  0  0  0  0  0  0  0  0
    8.1431    7.6829   21.9046 C   0  0  0  0  0  0  0  0  0  0  0  0
    7.7796   10.1314   21.5115 N   0  0  0  0  0  0  0  0  0  0  0  0
    9.2768    5.6183   21.4437 C   0  0  0  0  0  0  0  0  0  0  0  0
    8.6315    7.7322   23.1768 C   0  0  0  0  0  0  0  0  0  0  0  0
   13.0537    9.9821   20.5781 C   0  0  0  0  0  0  0  0  0  0  0  0
   10.3850    4.6575   23.2386 O   0  0  0  0  0  0  0  0  0  0  0  0
    4.2069    6.8450   20.7994 C   0  0  0  0  0  0  0  0  0  0  0  0
    3.0726   10.1043   19.8522 O   0  0  0  0  0  0  0  0  0  0  0  0
    5.5057    7.1196   21.1155 C   0  0  0  0  0  0  0  0  0  0  0  0
    7.0367   11.0229   21.9948 O   0  0  0  0  0  0  0  0  0  0  0  0
  1  8  4  0
  1 12  4  0
  2  9  1  0
  2 11  4  0
  2 25  4  0
  3 12  4  0
  3 14  1  0
  3 23  4  0
  4 13  4  0
  4 21  4  0
  4 24  1  0
  5  8  4  0
  5 23  4  0
  6 18  2  0
  7 15  4  0
  7 16  1  0
  7 27  4  0
  8 18  1  0
 10 18  1  0
 10 20  1  0
 11 15  4  0
 11 26  1  0
 13 22  4  0
 16 19  1  0
 16 20  2  0
 17 19  4  0
 17 21  4  0
 19 22  4  0
 20 28  1  0
 25 27  4  0
M  END
$$$$

 Created by Python create_sdf_string function

 28 30  0  0  0  0  0  0  0  0999 V2000
   11.4592   11.2893   18.7941 C   0  0  0  0  0  0  0  0  0  0  0  0
    3.4202    7.9009   20.3866 C   0  0  0  0  0  0  0  0  0  0  0  0
   13.5280   10.3522   19.3586 C   0  0  0  0  0  0  0  0  0  0  0  0
    9.6923    5.6468   22.7891 C   0  0  0  0  0  0  0  0  0  0  0  0
   11.7756   10.2554   20.8841 N   0  0  0  0  0  0  0  0  0  0  0  0
    8.9876   11.9370   19.8757 O   0  0  0  0  0  0  0  0  0  0  0  0
    6.0167    8.4478   21.1089 C   0  0  0  0  0  0  0  0  0  0  0  0
   11.0002   10.8890   20.0262 C   0  0  0  0  0  0  0  0  0  0  0  0
    2.1721    7.7393   20.0315 O   0  0  0  0  0  0  0  0  0  0  0  0
    9.1107   10.3880   21.3769 N   0  0  0  0  0  0  0  0  0  0  0  0
    3.9102    9.2008   20.3124 C   0  0  0  0  0  0  0  0  0  0  0  0
   12.7292   10.9960   18.4597 C   0  0  0  0  0  0  0  0  0  0  0  0
    9.3798    6.6793   23.6625 C   0  0  0  0  0  0  0  0  0  0  0  0
   14.7425   10.0739   19.0802 O   0  0  0  0  0  0  0  0  0  0  0  0
    5.1894    9.4673   20.7118 C   0  0  0  0  0  0  0  0  0  0  0  0
    7.3773    8.8224   21.4870 C   0  0  0  0  0  0  0  0  0  0  0  0
    8.4391    6.6439   21.0235 C   0  0  0  0  0  0  0  0  0  0  0  0
    9.6494   11.1353   20.4167 C   0  0  0  0  0  0  0  0  0  0  0  0
    8.1431    7.6829   21.9046 C   0  0  0  0  0  0  0  0  0  0  0  0
    7.7796   10.1314   21.5115 N   0  0  0  0  0  0  0  0  0  0  0  0
    9.2768    5.6183   21.4437 C   0  0  0  0  0  0  0  0  0  0  0  0
    8.6315    7.7322   23.1768 C   0  0  0  0  0  0  0  0  0  0  0  0
   13.0537    9.9821   20.5781 C   0  0  0  0  0  0  0  0  0  0  0  0
   10.3850    4.6575   23.2386 O   0  0  0  0  0  0  0  0  0  0  0  0
    4.2069    6.8450   20.7994 C   0  0  0  0  0  0  0  0  0  0  0  0
    3.0726   10.1043   19.8522 O   0  0  0  0  0  0  0  0  0  0  0  0
    5.5057    7.1196   21.1155 C   0  0  0  0  0  0  0  0  0  0  0  0
    7.0367   11.0229   21.9948 O   0  0  0  0  0  0  0  0  0  0  0  0
  1  8  4  0
  1 12  4  0
  2  9  1  0
  2 11  4  0
  2 25  4  0
  3 12  4  0
  3 14  1  0
  3 23  4  0
  4 13  4  0
  4 21  4  0
  4 24  1  0
  5  8  4  0
  5 23  4  0
  6 18  2  0
  7 15  4  0
  7 16  1  0
  7 27  4  0
  8 18  1  0
 10 18  1  0
 10 20  1  0
 11 15  4  0
 11 26  1  0
 13 22  4  0
 16 19  1  0
 16 20  2  0
 17 19  4  0
 17 21  4  0
 19 22  4  0
 20 28  1  0
 25 27  4  0
M  END
$$$$

 Created by Python create_sdf_string function

 28 30  0  0  0  0  0  0  0  0999 V2000
   11.4592   11.2893   18.7941 C   0  0  0  0  0  0  0  0  0  0  0  0
    3.4202    7.9009   20.3866 C   0  0  0  0  0  0  0  0  0  0  0  0
   13.5280   10.3522   19.3586 C   0  0  0  0  0  0  0  0  0  0  0  0
    9.6923    5.6468   22.7891 C   0  0  0  0  0  0  0  0  0  0  0  0
   11.7756   10.2554   20.8841 N   0  0  0  0  0  0  0  0  0  0  0  0
    8.9876   11.9370   19.8757 O   0  0  0  0  0  0  0  0  0  0  0  0
    6.0167    8.4478   21.1089 C   0  0  0  0  0  0  0  0  0  0  0  0
   11.0002   10.8890   20.0262 C   0  0  0  0  0  0  0  0  0  0  0  0
    2.1721    7.7393   20.0315 O   0  0  0  0  0  0  0  0  0  0  0  0
    9.1107   10.3880   21.3769 N   0  0  0  0  0  0  0  0  0  0  0  0
    3.9102    9.2008   20.3124 C   0  0  0  0  0  0  0  0  0  0  0  0
   12.7292   10.9960   18.4597 C   0  0  0  0  0  0  0  0  0  0  0  0
    9.3798    6.6793   23.6625 C   0  0  0  0  0  0  0  0  0  0  0  0
   14.7425   10.0739   19.0802 O   0  0  0  0  0  0  0  0  0  0  0  0
    5.1894    9.4673   20.7118 C   0  0  0  0  0  0  0  0  0  0  0  0
    7.3773    8.8224   21.4870 C   0  0  0  0  0  0  0  0  0  0  0  0
    8.4391    6.6439   21.0235 C   0  0  0  0  0  0  0  0  0  0  0  0
    9.6494   11.1353   20.4167 C   0  0  0  0  0  0  0  0  0  0  0  0
    8.1431    7.6829   21.9046 C   0  0  0  0  0  0  0  0  0  0  0  0
    7.7796   10.1314   21.5115 N   0  0  0  0  0  0  0  0  0  0  0  0
    9.2768    5.6183   21.4437 C   0  0  0  0  0  0  0  0  0  0  0  0
    8.6315    7.7322   23.1768 C   0  0  0  0  0  0  0  0  0  0  0  0
   13.0537    9.9821   20.5781 C   0  0  0  0  0  0  0  0  0  0  0  0
   10.3850    4.6575   23.2386 O   0  0  0  0  0  0  0  0  0  0  0  0
    4.2069    6.8450   20.7994 C   0  0  0  0  0  0  0  0  0  0  0  0
    3.0726   10.1043   19.8522 O   0  0  0  0  0  0  0  0  0  0  0  0
    5.5057    7.1196   21.1155 C   0  0  0  0  0  0  0  0  0  0  0  0
    7.0367   11.0229   21.9948 O   0  0  0  0  0  0  0  0  0  0  0  0
  1  8  4  0
  1 12  4  0
  2  9  1  0
  2 11  4  0
  2 25  4  0
  3 12  4  0
  3 14  1  0
  3 23  4  0
  4 13  4  0
  4 21  4  0
  4 24  1  0
  5  8  4  0
  5 23  4  0
  6 18  2  0
  7 15  4  0
  7 16  1  0
  7 27  4  0
  8 18  1  0
 10 18  1  0
 10 20  1  0
 11 15  4  0
 11 26  1  0
 13 22  4  0
 16 19  1  0
 16 20  2  0
 17 19  4  0
 17 21  4  0
 19 22  4  0
 20 28  1  0
 25 27  4  0
M  END
$$$$

 Created by Python create_sdf_string function

 28 30  0  0  0  0  0  0  0  0999 V2000
   11.4592   11.2893   18.7941 C   0  0  0  0  0  0  0  0  0  0  0  0
    3.4202    7.9009   20.3866 C   0  0  0  0  0  0  0  0  0  0  0  0
   13.5280   10.3522   19.3586 C   0  0  0  0  0  0  0  0  0  0  0  0
    9.6923    5.6468   22.7891 C   0  0  0  0  0  0  0  0  0  0  0  0
   11.7756   10.2554   20.8841 N   0  0  0  0  0  0  0  0  0  0  0  0
    8.9876   11.9370   19.8757 O   0  0  0  0  0  0  0  0  0  0  0  0
    6.0167    8.4478   21.1089 C   0  0  0  0  0  0  0  0  0  0  0  0
   11.0002   10.8890   20.0262 C   0  0  0  0  0  0  0  0  0  0  0  0
    2.1721    7.7393   20.0315 O   0  0  0  0  0  0  0  0  0  0  0  0
    9.1107   10.3880   21.3769 N   0  0  0  0  0  0  0  0  0  0  0  0
    3.9102    9.2008   20.3124 C   0  0  0  0  0  0  0  0  0  0  0  0
   12.7292   10.9960   18.4597 C   0  0  0  0  0  0  0  0  0  0  0  0
    9.3798    6.6793   23.6625 C   0  0  0  0  0  0  0  0  0  0  0  0
   14.7425   10.0739   19.0802 O   0  0  0  0  0  0  0  0  0  0  0  0
    5.1894    9.4673   20.7118 C   0  0  0  0  0  0  0  0  0  0  0  0
    7.3773    8.8224   21.4870 C   0  0  0  0  0  0  0  0  0  0  0  0
    8.4391    6.6439   21.0235 C   0  0  0  0  0  0  0  0  0  0  0  0
    9.6494   11.1353   20.4167 C   0  0  0  0  0  0  0  0  0  0  0  0
    8.1431    7.6829   21.9046 C   0  0  0  0  0  0  0  0  0  0  0  0
    7.7796   10.1314   21.5115 N   0  0  0  0  0  0  0  0  0  0  0  0
    9.2768    5.6183   21.4437 C   0  0  0  0  0  0  0  0  0  0  0  0
    8.6315    7.7322   23.1768 C   0  0  0  0  0  0  0  0  0  0  0  0
   13.0537    9.9821   20.5781 C   0  0  0  0  0  0  0  0  0  0  0  0
   10.3850    4.6575   23.2386 O   0  0  0  0  0  0  0  0  0  0  0  0
    4.2069    6.8450   20.7994 C   0  0  0  0  0  0  0  0  0  0  0  0
    3.0726   10.1043   19.8522 O   0  0  0  0  0  0  0  0  0  0  0  0
    5.5057    7.1196   21.1155 C   0  0  0  0  0  0  0  0  0  0  0  0
    7.0367   11.0229   21.9948 O   0  0  0  0  0  0  0  0  0  0  0  0
  1  8  4  0
  1 12  4  0
  2  9  1  0
  2 11  4  0
  2 25  4  0
  3 12  4  0
  3 14  1  0
  3 23  4  0
  4 13  4  0
  4 21  4  0
  4 24  1  0
  5  8  4  0
  5 23  4  0
  6 18  2  0
  7 15  4  0
  7 16  1  0
  7 27  4  0
  8 18  1  0
 10 18  1  0
 10 20  1  0
 11 15  4  0
 11 26  1  0
 13 22  4  0
 16 19  1  0
 16 20  2  0
 17 19  4  0
 17 21  4  0
 19 22  4  0
 20 28  1  0
 25 27  4  0
M  END
$$$$

 Created by Python create_sdf_string function

 28 30  0  0  0  0  0  0  0  0999 V2000
   11.4592   11.2893   18.7941 C   0  0  0  0  0  0  0  0  0  0  0  0
    3.4202    7.9009   20.3866 C   0  0  0  0  0  0  0  0  0  0  0  0
   13.5280   10.3522   19.3586 C   0  0  0  0  0  0  0  0  0  0  0  0
    9.6923    5.6468   22.7891 C   0  0  0  0  0  0  0  0  0  0  0  0
   11.7756   10.2554   20.8841 N   0  0  0  0  0  0  0  0  0  0  0  0
    8.9876   11.9370   19.8757 O   0  0  0  0  0  0  0  0  0  0  0  0
    6.0167    8.4478   21.1089 C   0  0  0  0  0  0  0  0  0  0  0  0
   11.0002   10.8890   20.0262 C   0  0  0  0  0  0  0  0  0  0  0  0
    2.1721    7.7393   20.0315 O   0  0  0  0  0  0  0  0  0  0  0  0
    9.1107   10.3880   21.3769 N   0  0  0  0  0  0  0  0  0  0  0  0
    3.9102    9.2008   20.3124 C   0  0  0  0  0  0  0  0  0  0  0  0
   12.7292   10.9960   18.4597 C   0  0  0  0  0  0  0  0  0  0  0  0
    9.3798    6.6793   23.6625 C   0  0  0  0  0  0  0  0  0  0  0  0
   14.7425   10.0739   19.0802 O   0  0  0  0  0  0  0  0  0  0  0  0
    5.1894    9.4673   20.7118 C   0  0  0  0  0  0  0  0  0  0  0  0
    7.3773    8.8224   21.4870 C   0  0  0  0  0  0  0  0  0  0  0  0
    8.4391    6.6439   21.0235 C   0  0  0  0  0  0  0  0  0  0  0  0
    9.6494   11.1353   20.4167 C   0  0  0  0  0  0  0  0  0  0  0  0
    8.1431    7.6829   21.9046 C   0  0  0  0  0  0  0  0  0  0  0  0
    7.7796   10.1314   21.5115 N   0  0  0  0  0  0  0  0  0  0  0  0
    9.2768    5.6183   21.4437 C   0  0  0  0  0  0  0  0  0  0  0  0
    8.6315    7.7322   23.1768 C   0  0  0  0  0  0  0  0  0  0  0  0
   13.0537    9.9821   20.5781 C   0  0  0  0  0  0  0  0  0  0  0  0
   10.3850    4.6575   23.2386 O   0  0  0  0  0  0  0  0  0  0  0  0
    4.2069    6.8450   20.7994 C   0  0  0  0  0  0  0  0  0  0  0  0
    3.0726   10.1043   19.8522 O   0  0  0  0  0  0  0  0  0  0  0  0
    5.5057    7.1196   21.1155 C   0  0  0  0  0  0  0  0  0  0  0  0
    7.0367   11.0229   21.9948 O   0  0  0  0  0  0  0  0  0  0  0  0
  1  8  4  0
  1 12  4  0
  2  9  1  0
  2 11  4  0
  2 25  4  0
  3 12  4  0
  3 14  1  0
  3 23  4  0
  4 13  4  0
  4 21  4  0
  4 24  1  0
  5  8  4  0
  5 23  4  0
  6 18  2  0
  7 15  4  0
  7 16  1  0
  7 27  4  0
  8 18  1  0
 10 18  1  0
 10 20  1  0
 11 15  4  0
 11 26  1  0
 13 22  4  0
 16 19  1  0
 16 20  2  0
 17 19  4  0
 17 21  4  0
 19 22  4  0
 20 28  1  0
 25 27  4  0
M  END
$$$$

 Created by Python create_sdf_string function

 28 30  0  0  0  0  0  0  0  0999 V2000
   11.4592   11.2893   18.7941 C   0  0  0  0  0  0  0  0  0  0  0  0
    3.4202    7.9009   20.3866 C   0  0  0  0  0  0  0  0  0  0  0  0
   13.5280   10.3522   19.3586 C   0  0  0  0  0  0  0  0  0  0  0  0
    9.6923    5.6468   22.7891 C   0  0  0  0  0  0  0  0  0  0  0  0
   11.7756   10.2554   20.8841 N   0  0  0  0  0  0  0  0  0  0  0  0
    8.9876   11.9370   19.8757 O   0  0  0  0  0  0  0  0  0  0  0  0
    6.0167    8.4478   21.1089 C   0  0  0  0  0  0  0  0  0  0  0  0
   11.0002   10.8890   20.0262 C   0  0  0  0  0  0  0  0  0  0  0  0
    2.1721    7.7393   20.0315 O   0  0  0  0  0  0  0  0  0  0  0  0
    9.1107   10.3880   21.3769 N   0  0  0  0  0  0  0  0  0  0  0  0
    3.9102    9.2008   20.3124 C   0  0  0  0  0  0  0  0  0  0  0  0
   12.7292   10.9960   18.4597 C   0  0  0  0  0  0  0  0  0  0  0  0
    9.3798    6.6793   23.6625 C   0  0  0  0  0  0  0  0  0  0  0  0
   14.7425   10.0739   19.0802 O   0  0  0  0  0  0  0  0  0  0  0  0
    5.1894    9.4673   20.7118 C   0  0  0  0  0  0  0  0  0  0  0  0
    7.3773    8.8224   21.4870 C   0  0  0  0  0  0  0  0  0  0  0  0
    8.4391    6.6439   21.0235 C   0  0  0  0  0  0  0  0  0  0  0  0
    9.6494   11.1353   20.4167 C   0  0  0  0  0  0  0  0  0  0  0  0
    8.1431    7.6829   21.9046 C   0  0  0  0  0  0  0  0  0  0  0  0
    7.7796   10.1314   21.5115 N   0  0  0  0  0  0  0  0  0  0  0  0
    9.2768    5.6183   21.4437 C   0  0  0  0  0  0  0  0  0  0  0  0
    8.6315    7.7322   23.1768 C   0  0  0  0  0  0  0  0  0  0  0  0
   13.0537    9.9821   20.5781 C   0  0  0  0  0  0  0  0  0  0  0  0
   10.3850    4.6575   23.2386 O   0  0  0  0  0  0  0  0  0  0  0  0
    4.2069    6.8450   20.7994 C   0  0  0  0  0  0  0  0  0  0  0  0
    3.0726   10.1043   19.8522 O   0  0  0  0  0  0  0  0  0  0  0  0
    5.5057    7.1196   21.1155 C   0  0  0  0  0  0  0  0  0  0  0  0
    7.0367   11.0229   21.9948 O   0  0  0  0  0  0  0  0  0  0  0  0
  1  8  4  0
  1 12  4  0
  2  9  1  0
  2 11  4  0
  2 25  4  0
  3 12  4  0
  3 14  1  0
  3 23  4  0
  4 13  4  0
  4 21  4  0
  4 24  1  0
  5  8  4  0
  5 23  4  0
  6 18  2  0
  7 15  4  0
  7 16  1  0
  7 27  4  0
  8 18  1  0
 10 18  1  0
 10 20  1  0
 11 15  4  0
 11 26  1  0
 13 22  4  0
 16 19  1  0
 16 20  2  0
 17 19  4  0
 17 21  4  0
 19 22  4  0
 20 28  1  0
 25 27  4  0
M  END
$$$$

 Created by Python create_sdf_string function

 28 30  0  0  0  0  0  0  0  0999 V2000
   11.4592   11.2893   18.7941 C   0  0  0  0  0  0  0  0  0  0  0  0
    3.4202    7.9009   20.3866 C   0  0  0  0  0  0  0  0  0  0  0  0
   13.5280   10.3522   19.3586 C   0  0  0  0  0  0  0  0  0  0  0  0
    9.6923    5.6468   22.7891 C   0  0  0  0  0  0  0  0  0  0  0  0
   11.7756   10.2554   20.8841 N   0  0  0  0  0  0  0  0  0  0  0  0
    8.9876   11.9370   19.8757 O   0  0  0  0  0  0  0  0  0  0  0  0
    6.0167    8.4478   21.1089 C   0  0  0  0  0  0  0  0  0  0  0  0
   11.0002   10.8890   20.0262 C   0  0  0  0  0  0  0  0  0  0  0  0
    2.1721    7.7393   20.0315 O   0  0  0  0  0  0  0  0  0  0  0  0
    9.1107   10.3880   21.3769 N   0  0  0  0  0  0  0  0  0  0  0  0
    3.9102    9.2008   20.3124 C   0  0  0  0  0  0  0  0  0  0  0  0
   12.7292   10.9960   18.4597 C   0  0  0  0  0  0  0  0  0  0  0  0
    9.3798    6.6793   23.6625 C   0  0  0  0  0  0  0  0  0  0  0  0
   14.7425   10.0739   19.0802 O   0  0  0  0  0  0  0  0  0  0  0  0
    5.1894    9.4673   20.7118 C   0  0  0  0  0  0  0  0  0  0  0  0
    7.3773    8.8224   21.4870 C   0  0  0  0  0  0  0  0  0  0  0  0
    8.4391    6.6439   21.0235 C   0  0  0  0  0  0  0  0  0  0  0  0
    9.6494   11.1353   20.4167 C   0  0  0  0  0  0  0  0  0  0  0  0
    8.1431    7.6829   21.9046 C   0  0  0  0  0  0  0  0  0  0  0  0
    7.7796   10.1314   21.5115 N   0  0  0  0  0  0  0  0  0  0  0  0
    9.2768    5.6183   21.4437 C   0  0  0  0  0  0  0  0  0  0  0  0
    8.6315    7.7322   23.1768 C   0  0  0  0  0  0  0  0  0  0  0  0
   13.0537    9.9821   20.5781 C   0  0  0  0  0  0  0  0  0  0  0  0
   10.3850    4.6575   23.2386 O   0  0  0  0  0  0  0  0  0  0  0  0
    4.2069    6.8450   20.7994 C   0  0  0  0  0  0  0  0  0  0  0  0
    3.0726   10.1043   19.8522 O   0  0  0  0  0  0  0  0  0  0  0  0
    5.5057    7.1196   21.1155 C   0  0  0  0  0  0  0  0  0  0  0  0
    7.0367   11.0229   21.9948 O   0  0  0  0  0  0  0  0  0  0  0  0
  1  8  4  0
  1 12  4  0
  2  9  1  0
  2 11  4  0
  2 25  4  0
  3 12  4  0
  3 14  1  0
  3 23  4  0
  4 13  4  0
  4 21  4  0
  4 24  1  0
  5  8  4  0
  5 23  4  0
  6 18  2  0
  7 15  4  0
  7 16  1  0
  7 27  4  0
  8 18  1  0
 10 18  1  0
 10 20  1  0
 11 15  4  0
 11 26  1  0
 13 22  4  0
 16 19  1  0
 16 20  2  0
 17 19  4  0
 17 21  4  0
 19 22  4  0
 20 28  1  0
 25 27  4  0
M  END
$$$$

 Created by Python create_sdf_string function

 28 30  0  0  0  0  0  0  0  0999 V2000
   11.4592   11.2893   18.7941 C   0  0  0  0  0  0  0  0  0  0  0  0
    3.4202    7.9009   20.3866 C   0  0  0  0  0  0  0  0  0  0  0  0
   13.5280   10.3522   19.3586 C   0  0  0  0  0  0  0  0  0  0  0  0
    9.6923    5.6468   22.7891 C   0  0  0  0  0  0  0  0  0  0  0  0
   11.7756   10.2554   20.8841 N   0  0  0  0  0  0  0  0  0  0  0  0
    8.9876   11.9370   19.8757 O   0  0  0  0  0  0  0  0  0  0  0  0
    6.0167    8.4478   21.1089 C   0  0  0  0  0  0  0  0  0  0  0  0
   11.0002   10.8890   20.0262 C   0  0  0  0  0  0  0  0  0  0  0  0
    2.1721    7.7393   20.0315 O   0  0  0  0  0  0  0  0  0  0  0  0
    9.1107   10.3880   21.3769 N   0  0  0  0  0  0  0  0  0  0  0  0
    3.9102    9.2008   20.3124 C   0  0  0  0  0  0  0  0  0  0  0  0
   12.7292   10.9960   18.4597 C   0  0  0  0  0  0  0  0  0  0  0  0
    9.3798    6.6793   23.6625 C   0  0  0  0  0  0  0  0  0  0  0  0
   14.7425   10.0739   19.0802 O   0  0  0  0  0  0  0  0  0  0  0  0
    5.1894    9.4673   20.7118 C   0  0  0  0  0  0  0  0  0  0  0  0
    7.3773    8.8224   21.4870 C   0  0  0  0  0  0  0  0  0  0  0  0
    8.4391    6.6439   21.0235 C   0  0  0  0  0  0  0  0  0  0  0  0
    9.6494   11.1353   20.4167 C   0  0  0  0  0  0  0  0  0  0  0  0
    8.1431    7.6829   21.9046 C   0  0  0  0  0  0  0  0  0  0  0  0
    7.7796   10.1314   21.5115 N   0  0  0  0  0  0  0  0  0  0  0  0
    9.2768    5.6183   21.4437 C   0  0  0  0  0  0  0  0  0  0  0  0
    8.6315    7.7322   23.1768 C   0  0  0  0  0  0  0  0  0  0  0  0
   13.0537    9.9821   20.5781 C   0  0  0  0  0  0  0  0  0  0  0  0
   10.3850    4.6575   23.2386 O   0  0  0  0  0  0  0  0  0  0  0  0
    4.2069    6.8450   20.7994 C   0  0  0  0  0  0  0  0  0  0  0  0
    3.0726   10.1043   19.8522 O   0  0  0  0  0  0  0  0  0  0  0  0
    5.5057    7.1196   21.1155 C   0  0  0  0  0  0  0  0  0  0  0  0
    7.0367   11.0229   21.9948 O   0  0  0  0  0  0  0  0  0  0  0  0
  1  8  4  0
  1 12  4  0
  2  9  1  0
  2 11  4  0
  2 25  4  0
  3 12  4  0
  3 14  1  0
  3 23  4  0
  4 13  4  0
  4 21  4  0
  4 24  1  0
  5  8  4  0
  5 23  4  0
  6 18  2  0
  7 15  4  0
  7 16  1  0
  7 27  4  0
  8 18  1  0
 10 18  1  0
 10 20  1  0
 11 15  4  0
 11 26  1  0
 13 22  4  0
 16 19  1  0
 16 20  2  0
 17 19  4  0
 17 21  4  0
 19 22  4  0
 20 28  1  0
 25 27  4  0
M  END
$$$$

 Created by Python create_sdf_string function

 28 30  0  0  0  0  0  0  0  0999 V2000
   11.4592   11.2893   18.7941 C   0  0  0  0  0  0  0  0  0  0  0  0
    3.4202    7.9009   20.3866 C   0  0  0  0  0  0  0  0  0  0  0  0
   13.5280   10.3522   19.3586 C   0  0  0  0  0  0  0  0  0  0  0  0
    9.6923    5.6468   22.7891 C   0  0  0  0  0  0  0  0  0  0  0  0
   11.7756   10.2554   20.8841 N   0  0  0  0  0  0  0  0  0  0  0  0
    8.9876   11.9370   19.8757 O   0  0  0  0  0  0  0  0  0  0  0  0
    6.0167    8.4478   21.1089 C   0  0  0  0  0  0  0  0  0  0  0  0
   11.0002   10.8890   20.0262 C   0  0  0  0  0  0  0  0  0  0  0  0
    2.1721    7.7393   20.0315 O   0  0  0  0  0  0  0  0  0  0  0  0
    9.1107   10.3880   21.3769 N   0  0  0  0  0  0  0  0  0  0  0  0
    3.9102    9.2008   20.3124 C   0  0  0  0  0  0  0  0  0  0  0  0
   12.7292   10.9960   18.4597 C   0  0  0  0  0  0  0  0  0  0  0  0
    9.3798    6.6793   23.6625 C   0  0  0  0  0  0  0  0  0  0  0  0
   14.7425   10.0739   19.0802 O   0  0  0  0  0  0  0  0  0  0  0  0
    5.1894    9.4673   20.7118 C   0  0  0  0  0  0  0  0  0  0  0  0
    7.3773    8.8224   21.4870 C   0  0  0  0  0  0  0  0  0  0  0  0
    8.4391    6.6439   21.0235 C   0  0  0  0  0  0  0  0  0  0  0  0
    9.6494   11.1353   20.4167 C   0  0  0  0  0  0  0  0  0  0  0  0
    8.1431    7.6829   21.9046 C   0  0  0  0  0  0  0  0  0  0  0  0
    7.7796   10.1314   21.5115 N   0  0  0  0  0  0  0  0  0  0  0  0
    9.2768    5.6183   21.4437 C   0  0  0  0  0  0  0  0  0  0  0  0
    8.6315    7.7322   23.1768 C   0  0  0  0  0  0  0  0  0  0  0  0
   13.0537    9.9821   20.5781 C   0  0  0  0  0  0  0  0  0  0  0  0
   10.3850    4.6575   23.2386 O   0  0  0  0  0  0  0  0  0  0  0  0
    4.2069    6.8450   20.7994 C   0  0  0  0  0  0  0  0  0  0  0  0
    3.0726   10.1043   19.8522 O   0  0  0  0  0  0  0  0  0  0  0  0
    5.5057    7.1196   21.1155 C   0  0  0  0  0  0  0  0  0  0  0  0
    7.0367   11.0229   21.9948 O   0  0  0  0  0  0  0  0  0  0  0  0
  1  8  4  0
  1 12  4  0
  2  9  1  0
  2 11  4  0
  2 25  4  0
  3 12  4  0
  3 14  1  0
  3 23  4  0
  4 13  4  0
  4 21  4  0
  4 24  1  0
  5  8  4  0
  5 23  4  0
  6 18  2  0
  7 15  4  0
  7 16  1  0
  7 27  4  0
  8 18  1  0
 10 18  1  0
 10 20  1  0
 11 15  4  0
 11 26  1  0
 13 22  4  0
 16 19  1  0
 16 20  2  0
 17 19  4  0
 17 21  4  0
 19 22  4  0
 20 28  1  0
 25 27  4  0
M  END
$$$$

 Created by Python create_sdf_string function

 28 30  0  0  0  0  0  0  0  0999 V2000
   11.4592   11.2893   18.7941 C   0  0  0  0  0  0  0  0  0  0  0  0
    3.4202    7.9009   20.3866 C   0  0  0  0  0  0  0  0  0  0  0  0
   13.5280   10.3522   19.3586 C   0  0  0  0  0  0  0  0  0  0  0  0
    9.6923    5.6468   22.7891 C   0  0  0  0  0  0  0  0  0  0  0  0
   11.7756   10.2554   20.8841 N   0  0  0  0  0  0  0  0  0  0  0  0
    8.9876   11.9370   19.8757 O   0  0  0  0  0  0  0  0  0  0  0  0
    6.0167    8.4478   21.1089 C   0  0  0  0  0  0  0  0  0  0  0  0
   11.0002   10.8890   20.0262 C   0  0  0  0  0  0  0  0  0  0  0  0
    2.1721    7.7393   20.0315 O   0  0  0  0  0  0  0  0  0  0  0  0
    9.1107   10.3880   21.3769 N   0  0  0  0  0  0  0  0  0  0  0  0
    3.9102    9.2008   20.3124 C   0  0  0  0  0  0  0  0  0  0  0  0
   12.7292   10.9960   18.4597 C   0  0  0  0  0  0  0  0  0  0  0  0
    9.3798    6.6793   23.6625 C   0  0  0  0  0  0  0  0  0  0  0  0
   14.7425   10.0739   19.0802 O   0  0  0  0  0  0  0  0  0  0  0  0
    5.1894    9.4673   20.7118 C   0  0  0  0  0  0  0  0  0  0  0  0
    7.3773    8.8224   21.4870 C   0  0  0  0  0  0  0  0  0  0  0  0
    8.4391    6.6439   21.0235 C   0  0  0  0  0  0  0  0  0  0  0  0
    9.6494   11.1353   20.4167 C   0  0  0  0  0  0  0  0  0  0  0  0
    8.1431    7.6829   21.9046 C   0  0  0  0  0  0  0  0  0  0  0  0
    7.7796   10.1314   21.5115 N   0  0  0  0  0  0  0  0  0  0  0  0
    9.2768    5.6183   21.4437 C   0  0  0  0  0  0  0  0  0  0  0  0
    8.6315    7.7322   23.1768 C   0  0  0  0  0  0  0  0  0  0  0  0
   13.0537    9.9821   20.5781 C   0  0  0  0  0  0  0  0  0  0  0  0
   10.3850    4.6575   23.2386 O   0  0  0  0  0  0  0  0  0  0  0  0
    4.2069    6.8450   20.7994 C   0  0  0  0  0  0  0  0  0  0  0  0
    3.0726   10.1043   19.8522 O   0  0  0  0  0  0  0  0  0  0  0  0
    5.5057    7.1196   21.1155 C   0  0  0  0  0  0  0  0  0  0  0  0
    7.0367   11.0229   21.9948 O   0  0  0  0  0  0  0  0  0  0  0  0
  1  8  4  0
  1 12  4  0
  2  9  1  0
  2 11  4  0
  2 25  4  0
  3 12  4  0
  3 14  1  0
  3 23  4  0
  4 13  4  0
  4 21  4  0
  4 24  1  0
  5  8  4  0
  5 23  4  0
  6 18  2  0
  7 15  4  0
  7 16  1  0
  7 27  4  0
  8 18  1  0
 10 18  1  0
 10 20  1  0
 11 15  4  0
 11 26  1  0
 13 22  4  0
 16 19  1  0
 16 20  2  0
 17 19  4  0
 17 21  4  0
 19 22  4  0
 20 28  1  0
 25 27  4  0
M  END
$$$$

 Created by Python create_sdf_string function

 28 30  0  0  0  0  0  0  0  0999 V2000
   11.4592   11.2893   18.7941 C   0  0  0  0  0  0  0  0  0  0  0  0
    3.4202    7.9009   20.3866 C   0  0  0  0  0  0  0  0  0  0  0  0
   13.5280   10.3522   19.3586 C   0  0  0  0  0  0  0  0  0  0  0  0
    9.6923    5.6468   22.7891 C   0  0  0  0  0  0  0  0  0  0  0  0
   11.7756   10.2554   20.8841 N   0  0  0  0  0  0  0  0  0  0  0  0
    8.9876   11.9370   19.8757 O   0  0  0  0  0  0  0  0  0  0  0  0
    6.0167    8.4478   21.1089 C   0  0  0  0  0  0  0  0  0  0  0  0
   11.0002   10.8890   20.0262 C   0  0  0  0  0  0  0  0  0  0  0  0
    2.1721    7.7393   20.0315 O   0  0  0  0  0  0  0  0  0  0  0  0
    9.1107   10.3880   21.3769 N   0  0  0  0  0  0  0  0  0  0  0  0
    3.9102    9.2008   20.3124 C   0  0  0  0  0  0  0  0  0  0  0  0
   12.7292   10.9960   18.4597 C   0  0  0  0  0  0  0  0  0  0  0  0
    9.3798    6.6793   23.6625 C   0  0  0  0  0  0  0  0  0  0  0  0
   14.7425   10.0739   19.0802 O   0  0  0  0  0  0  0  0  0  0  0  0
    5.1894    9.4673   20.7118 C   0  0  0  0  0  0  0  0  0  0  0  0
    7.3773    8.8224   21.4870 C   0  0  0  0  0  0  0  0  0  0  0  0
    8.4391    6.6439   21.0235 C   0  0  0  0  0  0  0  0  0  0  0  0
    9.6494   11.1353   20.4167 C   0  0  0  0  0  0  0  0  0  0  0  0
    8.1431    7.6829   21.9046 C   0  0  0  0  0  0  0  0  0  0  0  0
    7.7796   10.1314   21.5115 N   0  0  0  0  0  0  0  0  0  0  0  0
    9.2768    5.6183   21.4437 C   0  0  0  0  0  0  0  0  0  0  0  0
    8.6315    7.7322   23.1768 C   0  0  0  0  0  0  0  0  0  0  0  0
   13.0537    9.9821   20.5781 C   0  0  0  0  0  0  0  0  0  0  0  0
   10.3850    4.6575   23.2386 O   0  0  0  0  0  0  0  0  0  0  0  0
    4.2069    6.8450   20.7994 C   0  0  0  0  0  0  0  0  0  0  0  0
    3.0726   10.1043   19.8522 O   0  0  0  0  0  0  0  0  0  0  0  0
    5.5057    7.1196   21.1155 C   0  0  0  0  0  0  0  0  0  0  0  0
    7.0367   11.0229   21.9948 O   0  0  0  0  0  0  0  0  0  0  0  0
  1  8  4  0
  1 12  4  0
  2  9  1  0
  2 11  4  0
  2 25  4  0
  3 12  4  0
  3 14  1  0
  3 23  4  0
  4 13  4  0
  4 21  4  0
  4 24  1  0
  5  8  4  0
  5 23  4  0
  6 18  2  0
  7 15  4  0
  7 16  1  0
  7 27  4  0
  8 18  1  0
 10 18  1  0
 10 20  1  0
 11 15  4  0
 11 26  1  0
 13 22  4  0
 16 19  1  0
 16 20  2  0
 17 19  4  0
 17 21  4  0
 19 22  4  0
 20 28  1  0
 25 27  4  0
M  END
$$$$

 Created by Python create_sdf_string function

 28 30  0  0  0  0  0  0  0  0999 V2000
   11.4592   11.2893   18.7941 C   0  0  0  0  0  0  0  0  0  0  0  0
    3.4202    7.9009   20.3866 C   0  0  0  0  0  0  0  0  0  0  0  0
   13.5280   10.3522   19.3586 C   0  0  0  0  0  0  0  0  0  0  0  0
    9.6923    5.6468   22.7891 C   0  0  0  0  0  0  0  0  0  0  0  0
   11.7756   10.2554   20.8841 N   0  0  0  0  0  0  0  0  0  0  0  0
    8.9876   11.9370   19.8757 O   0  0  0  0  0  0  0  0  0  0  0  0
    6.0167    8.4478   21.1089 C   0  0  0  0  0  0  0  0  0  0  0  0
   11.0002   10.8890   20.0262 C   0  0  0  0  0  0  0  0  0  0  0  0
    2.1721    7.7393   20.0315 O   0  0  0  0  0  0  0  0  0  0  0  0
    9.1107   10.3880   21.3769 N   0  0  0  0  0  0  0  0  0  0  0  0
    3.9102    9.2008   20.3124 C   0  0  0  0  0  0  0  0  0  0  0  0
   12.7292   10.9960   18.4597 C   0  0  0  0  0  0  0  0  0  0  0  0
    9.3798    6.6793   23.6625 C   0  0  0  0  0  0  0  0  0  0  0  0
   14.7425   10.0739   19.0802 O   0  0  0  0  0  0  0  0  0  0  0  0
    5.1894    9.4673   20.7118 C   0  0  0  0  0  0  0  0  0  0  0  0
    7.3773    8.8224   21.4870 C   0  0  0  0  0  0  0  0  0  0  0  0
    8.4391    6.6439   21.0235 C   0  0  0  0  0  0  0  0  0  0  0  0
    9.6494   11.1353   20.4167 C   0  0  0  0  0  0  0  0  0  0  0  0
    8.1431    7.6829   21.9046 C   0  0  0  0  0  0  0  0  0  0  0  0
    7.7796   10.1314   21.5115 N   0  0  0  0  0  0  0  0  0  0  0  0
    9.2768    5.6183   21.4437 C   0  0  0  0  0  0  0  0  0  0  0  0
    8.6315    7.7322   23.1768 C   0  0  0  0  0  0  0  0  0  0  0  0
   13.0537    9.9821   20.5781 C   0  0  0  0  0  0  0  0  0  0  0  0
   10.3850    4.6575   23.2386 O   0  0  0  0  0  0  0  0  0  0  0  0
    4.2069    6.8450   20.7994 C   0  0  0  0  0  0  0  0  0  0  0  0
    3.0726   10.1043   19.8522 O   0  0  0  0  0  0  0  0  0  0  0  0
    5.5057    7.1196   21.1155 C   0  0  0  0  0  0  0  0  0  0  0  0
    7.0367   11.0229   21.9948 O   0  0  0  0  0  0  0  0  0  0  0  0
  1  8  4  0
  1 12  4  0
  2  9  1  0
  2 11  4  0
  2 25  4  0
  3 12  4  0
  3 14  1  0
  3 23  4  0
  4 13  4  0
  4 21  4  0
  4 24  1  0
  5  8  4  0
  5 23  4  0
  6 18  2  0
  7 15  4  0
  7 16  1  0
  7 27  4  0
  8 18  1  0
 10 18  1  0
 10 20  1  0
 11 15  4  0
 11 26  1  0
 13 22  4  0
 16 19  1  0
 16 20  2  0
 17 19  4  0
 17 21  4  0
 19 22  4  0
 20 28  1  0
 25 27  4  0
M  END
$$$$

 Created by Python create_sdf_string function

 28 30  0  0  0  0  0  0  0  0999 V2000
   11.4592   11.2893   18.7941 C   0  0  0  0  0  0  0  0  0  0  0  0
    3.4202    7.9009   20.3866 C   0  0  0  0  0  0  0  0  0  0  0  0
   13.5280   10.3522   19.3586 C   0  0  0  0  0  0  0  0  0  0  0  0
    9.6923    5.6468   22.7891 C   0  0  0  0  0  0  0  0  0  0  0  0
   11.7756   10.2554   20.8841 N   0  0  0  0  0  0  0  0  0  0  0  0
    8.9876   11.9370   19.8757 O   0  0  0  0  0  0  0  0  0  0  0  0
    6.0167    8.4478   21.1089 C   0  0  0  0  0  0  0  0  0  0  0  0
   11.0002   10.8890   20.0262 C   0  0  0  0  0  0  0  0  0  0  0  0
    2.1721    7.7393   20.0315 O   0  0  0  0  0  0  0  0  0  0  0  0
    9.1107   10.3880   21.3769 N   0  0  0  0  0  0  0  0  0  0  0  0
    3.9102    9.2008   20.3124 C   0  0  0  0  0  0  0  0  0  0  0  0
   12.7292   10.9960   18.4597 C   0  0  0  0  0  0  0  0  0  0  0  0
    9.3798    6.6793   23.6625 C   0  0  0  0  0  0  0  0  0  0  0  0
   14.7425   10.0739   19.0802 O   0  0  0  0  0  0  0  0  0  0  0  0
    5.1894    9.4673   20.7118 C   0  0  0  0  0  0  0  0  0  0  0  0
    7.3773    8.8224   21.4870 C   0  0  0  0  0  0  0  0  0  0  0  0
    8.4391    6.6439   21.0235 C   0  0  0  0  0  0  0  0  0  0  0  0
    9.6494   11.1353   20.4167 C   0  0  0  0  0  0  0  0  0  0  0  0
    8.1431    7.6829   21.9046 C   0  0  0  0  0  0  0  0  0  0  0  0
    7.7796   10.1314   21.5115 N   0  0  0  0  0  0  0  0  0  0  0  0
    9.2768    5.6183   21.4437 C   0  0  0  0  0  0  0  0  0  0  0  0
    8.6315    7.7322   23.1768 C   0  0  0  0  0  0  0  0  0  0  0  0
   13.0537    9.9821   20.5781 C   0  0  0  0  0  0  0  0  0  0  0  0
   10.3850    4.6575   23.2386 O   0  0  0  0  0  0  0  0  0  0  0  0
    4.2069    6.8450   20.7994 C   0  0  0  0  0  0  0  0  0  0  0  0
    3.0726   10.1043   19.8522 O   0  0  0  0  0  0  0  0  0  0  0  0
    5.5057    7.1196   21.1155 C   0  0  0  0  0  0  0  0  0  0  0  0
    7.0367   11.0229   21.9948 O   0  0  0  0  0  0  0  0  0  0  0  0
  1  8  4  0
  1 12  4  0
  2  9  1  0
  2 11  4  0
  2 25  4  0
  3 12  4  0
  3 14  1  0
  3 23  4  0
  4 13  4  0
  4 21  4  0
  4 24  1  0
  5  8  4  0
  5 23  4  0
  6 18  2  0
  7 15  4  0
  7 16  1  0
  7 27  4  0
  8 18  1  0
 10 18  1  0
 10 20  1  0
 11 15  4  0
 11 26  1  0
 13 22  4  0
 16 19  1  0
 16 20  2  0
 17 19  4  0
 17 21  4  0
 19 22  4  0
 20 28  1  0
 25 27  4  0
M  END
$$$$

 Created by Python create_sdf_string function

 28 30  0  0  0  0  0  0  0  0999 V2000
   11.4592   11.2893   18.7941 C   0  0  0  0  0  0  0  0  0  0  0  0
    3.4202    7.9009   20.3866 C   0  0  0  0  0  0  0  0  0  0  0  0
   13.5280   10.3522   19.3586 C   0  0  0  0  0  0  0  0  0  0  0  0
    9.6923    5.6468   22.7891 C   0  0  0  0  0  0  0  0  0  0  0  0
   11.7756   10.2554   20.8841 N   0  0  0  0  0  0  0  0  0  0  0  0
    8.9876   11.9370   19.8757 O   0  0  0  0  0  0  0  0  0  0  0  0
    6.0167    8.4478   21.1089 C   0  0  0  0  0  0  0  0  0  0  0  0
   11.0002   10.8890   20.0262 C   0  0  0  0  0  0  0  0  0  0  0  0
    2.1721    7.7393   20.0315 O   0  0  0  0  0  0  0  0  0  0  0  0
    9.1107   10.3880   21.3769 N   0  0  0  0  0  0  0  0  0  0  0  0
    3.9102    9.2008   20.3124 C   0  0  0  0  0  0  0  0  0  0  0  0
   12.7292   10.9960   18.4597 C   0  0  0  0  0  0  0  0  0  0  0  0
    9.3798    6.6793   23.6625 C   0  0  0  0  0  0  0  0  0  0  0  0
   14.7425   10.0739   19.0802 O   0  0  0  0  0  0  0  0  0  0  0  0
    5.1894    9.4673   20.7118 C   0  0  0  0  0  0  0  0  0  0  0  0
    7.3773    8.8224   21.4870 C   0  0  0  0  0  0  0  0  0  0  0  0
    8.4391    6.6439   21.0235 C   0  0  0  0  0  0  0  0  0  0  0  0
    9.6494   11.1353   20.4167 C   0  0  0  0  0  0  0  0  0  0  0  0
    8.1431    7.6829   21.9046 C   0  0  0  0  0  0  0  0  0  0  0  0
    7.7796   10.1314   21.5115 N   0  0  0  0  0  0  0  0  0  0  0  0
    9.2768    5.6183   21.4437 C   0  0  0  0  0  0  0  0  0  0  0  0
    8.6315    7.7322   23.1768 C   0  0  0  0  0  0  0  0  0  0  0  0
   13.0537    9.9821   20.5781 C   0  0  0  0  0  0  0  0  0  0  0  0
   10.3850    4.6575   23.2386 O   0  0  0  0  0  0  0  0  0  0  0  0
    4.2069    6.8450   20.7994 C   0  0  0  0  0  0  0  0  0  0  0  0
    3.0726   10.1043   19.8522 O   0  0  0  0  0  0  0  0  0  0  0  0
    5.5057    7.1196   21.1155 C   0  0  0  0  0  0  0  0  0  0  0  0
    7.0367   11.0229   21.9948 O   0  0  0  0  0  0  0  0  0  0  0  0
  1  8  4  0
  1 12  4  0
  2  9  1  0
  2 11  4  0
  2 25  4  0
  3 12  4  0
  3 14  1  0
  3 23  4  0
  4 13  4  0
  4 21  4  0
  4 24  1  0
  5  8  4  0
  5 23  4  0
  6 18  2  0
  7 15  4  0
  7 16  1  0
  7 27  4  0
  8 18  1  0
 10 18  1  0
 10 20  1  0
 11 15  4  0
 11 26  1  0
 13 22  4  0
 16 19  1  0
 16 20  2  0
 17 19  4  0
 17 21  4  0
 19 22  4  0
 20 28  1  0
 25 27  4  0
M  END
$$$$

 Created by Python create_sdf_string function

 28 30  0  0  0  0  0  0  0  0999 V2000
   11.4592   11.2893   18.7941 C   0  0  0  0  0  0  0  0  0  0  0  0
    3.4202    7.9009   20.3866 C   0  0  0  0  0  0  0  0  0  0  0  0
   13.5280   10.3522   19.3586 C   0  0  0  0  0  0  0  0  0  0  0  0
    9.6923    5.6468   22.7891 C   0  0  0  0  0  0  0  0  0  0  0  0
   11.7756   10.2554   20.8841 N   0  0  0  0  0  0  0  0  0  0  0  0
    8.9876   11.9370   19.8757 O   0  0  0  0  0  0  0  0  0  0  0  0
    6.0167    8.4478   21.1089 C   0  0  0  0  0  0  0  0  0  0  0  0
   11.0002   10.8890   20.0262 C   0  0  0  0  0  0  0  0  0  0  0  0
    2.1721    7.7393   20.0315 O   0  0  0  0  0  0  0  0  0  0  0  0
    9.1107   10.3880   21.3769 N   0  0  0  0  0  0  0  0  0  0  0  0
    3.9102    9.2008   20.3124 C   0  0  0  0  0  0  0  0  0  0  0  0
   12.7292   10.9960   18.4597 C   0  0  0  0  0  0  0  0  0  0  0  0
    9.3798    6.6793   23.6625 C   0  0  0  0  0  0  0  0  0  0  0  0
   14.7425   10.0739   19.0802 O   0  0  0  0  0  0  0  0  0  0  0  0
    5.1894    9.4673   20.7118 C   0  0  0  0  0  0  0  0  0  0  0  0
    7.3773    8.8224   21.4870 C   0  0  0  0  0  0  0  0  0  0  0  0
    8.4391    6.6439   21.0235 C   0  0  0  0  0  0  0  0  0  0  0  0
    9.6494   11.1353   20.4167 C   0  0  0  0  0  0  0  0  0  0  0  0
    8.1431    7.6829   21.9046 C   0  0  0  0  0  0  0  0  0  0  0  0
    7.7796   10.1314   21.5115 N   0  0  0  0  0  0  0  0  0  0  0  0
    9.2768    5.6183   21.4437 C   0  0  0  0  0  0  0  0  0  0  0  0
    8.6315    7.7322   23.1768 C   0  0  0  0  0  0  0  0  0  0  0  0
   13.0537    9.9821   20.5781 C   0  0  0  0  0  0  0  0  0  0  0  0
   10.3850    4.6575   23.2386 O   0  0  0  0  0  0  0  0  0  0  0  0
    4.2069    6.8450   20.7994 C   0  0  0  0  0  0  0  0  0  0  0  0
    3.0726   10.1043   19.8522 O   0  0  0  0  0  0  0  0  0  0  0  0
    5.5057    7.1196   21.1155 C   0  0  0  0  0  0  0  0  0  0  0  0
    7.0367   11.0229   21.9948 O   0  0  0  0  0  0  0  0  0  0  0  0
  1  8  4  0
  1 12  4  0
  2  9  1  0
  2 11  4  0
  2 25  4  0
  3 12  4  0
  3 14  1  0
  3 23  4  0
  4 13  4  0
  4 21  4  0
  4 24  1  0
  5  8  4  0
  5 23  4  0
  6 18  2  0
  7 15  4  0
  7 16  1  0
  7 27  4  0
  8 18  1  0
 10 18  1  0
 10 20  1  0
 11 15  4  0
 11 26  1  0
 13 22  4  0
 16 19  1  0
 16 20  2  0
 17 19  4  0
 17 21  4  0
 19 22  4  0
 20 28  1  0
 25 27  4  0
M  END
$$$$

 Created by Python create_sdf_string function

 28 30  0  0  0  0  0  0  0  0999 V2000
   11.4592   11.2893   18.7941 C   0  0  0  0  0  0  0  0  0  0  0  0
    3.4202    7.9009   20.3866 C   0  0  0  0  0  0  0  0  0  0  0  0
   13.5280   10.3522   19.3586 C   0  0  0  0  0  0  0  0  0  0  0  0
    9.6923    5.6468   22.7891 C   0  0  0  0  0  0  0  0  0  0  0  0
   11.7756   10.2554   20.8841 N   0  0  0  0  0  0  0  0  0  0  0  0
    8.9876   11.9370   19.8757 O   0  0  0  0  0  0  0  0  0  0  0  0
    6.0167    8.4478   21.1089 C   0  0  0  0  0  0  0  0  0  0  0  0
   11.0002   10.8890   20.0262 C   0  0  0  0  0  0  0  0  0  0  0  0
    2.1721    7.7393   20.0315 O   0  0  0  0  0  0  0  0  0  0  0  0
    9.1107   10.3880   21.3769 N   0  0  0  0  0  0  0  0  0  0  0  0
    3.9102    9.2008   20.3124 C   0  0  0  0  0  0  0  0  0  0  0  0
   12.7292   10.9960   18.4597 C   0  0  0  0  0  0  0  0  0  0  0  0
    9.3798    6.6793   23.6625 C   0  0  0  0  0  0  0  0  0  0  0  0
   14.7425   10.0739   19.0802 O   0  0  0  0  0  0  0  0  0  0  0  0
    5.1894    9.4673   20.7118 C   0  0  0  0  0  0  0  0  0  0  0  0
    7.3773    8.8224   21.4870 C   0  0  0  0  0  0  0  0  0  0  0  0
    8.4391    6.6439   21.0235 C   0  0  0  0  0  0  0  0  0  0  0  0
    9.6494   11.1353   20.4167 C   0  0  0  0  0  0  0  0  0  0  0  0
    8.1431    7.6829   21.9046 C   0  0  0  0  0  0  0  0  0  0  0  0
    7.7796   10.1314   21.5115 N   0  0  0  0  0  0  0  0  0  0  0  0
    9.2768    5.6183   21.4437 C   0  0  0  0  0  0  0  0  0  0  0  0
    8.6315    7.7322   23.1768 C   0  0  0  0  0  0  0  0  0  0  0  0
   13.0537    9.9821   20.5781 C   0  0  0  0  0  0  0  0  0  0  0  0
   10.3850    4.6575   23.2386 O   0  0  0  0  0  0  0  0  0  0  0  0
    4.2069    6.8450   20.7994 C   0  0  0  0  0  0  0  0  0  0  0  0
    3.0726   10.1043   19.8522 O   0  0  0  0  0  0  0  0  0  0  0  0
    5.5057    7.1196   21.1155 C   0  0  0  0  0  0  0  0  0  0  0  0
    7.0367   11.0229   21.9948 O   0  0  0  0  0  0  0  0  0  0  0  0
  1  8  4  0
  1 12  4  0
  2  9  1  0
  2 11  4  0
  2 25  4  0
  3 12  4  0
  3 14  1  0
  3 23  4  0
  4 13  4  0
  4 21  4  0
  4 24  1  0
  5  8  4  0
  5 23  4  0
  6 18  2  0
  7 15  4  0
  7 16  1  0
  7 27  4  0
  8 18  1  0
 10 18  1  0
 10 20  1  0
 11 15  4  0
 11 26  1  0
 13 22  4  0
 16 19  1  0
 16 20  2  0
 17 19  4  0
 17 21  4  0
 19 22  4  0
 20 28  1  0
 25 27  4  0
M  END
$$$$

 Created by Python create_sdf_string function

 28 30  0  0  0  0  0  0  0  0999 V2000
   11.4592   11.2893   18.7941 C   0  0  0  0  0  0  0  0  0  0  0  0
    3.4202    7.9009   20.3866 C   0  0  0  0  0  0  0  0  0  0  0  0
   13.5280   10.3522   19.3586 C   0  0  0  0  0  0  0  0  0  0  0  0
    9.6923    5.6468   22.7891 C   0  0  0  0  0  0  0  0  0  0  0  0
   11.7756   10.2554   20.8841 N   0  0  0  0  0  0  0  0  0  0  0  0
    8.9876   11.9370   19.8757 O   0  0  0  0  0  0  0  0  0  0  0  0
    6.0167    8.4478   21.1089 C   0  0  0  0  0  0  0  0  0  0  0  0
   11.0002   10.8890   20.0262 C   0  0  0  0  0  0  0  0  0  0  0  0
    2.1721    7.7393   20.0315 O   0  0  0  0  0  0  0  0  0  0  0  0
    9.1107   10.3880   21.3769 N   0  0  0  0  0  0  0  0  0  0  0  0
    3.9102    9.2008   20.3124 C   0  0  0  0  0  0  0  0  0  0  0  0
   12.7292   10.9960   18.4597 C   0  0  0  0  0  0  0  0  0  0  0  0
    9.3798    6.6793   23.6625 C   0  0  0  0  0  0  0  0  0  0  0  0
   14.7425   10.0739   19.0802 O   0  0  0  0  0  0  0  0  0  0  0  0
    5.1894    9.4673   20.7118 C   0  0  0  0  0  0  0  0  0  0  0  0
    7.3773    8.8224   21.4870 C   0  0  0  0  0  0  0  0  0  0  0  0
    8.4391    6.6439   21.0235 C   0  0  0  0  0  0  0  0  0  0  0  0
    9.6494   11.1353   20.4167 C   0  0  0  0  0  0  0  0  0  0  0  0
    8.1431    7.6829   21.9046 C   0  0  0  0  0  0  0  0  0  0  0  0
    7.7796   10.1314   21.5115 N   0  0  0  0  0  0  0  0  0  0  0  0
    9.2768    5.6183   21.4437 C   0  0  0  0  0  0  0  0  0  0  0  0
    8.6315    7.7322   23.1768 C   0  0  0  0  0  0  0  0  0  0  0  0
   13.0537    9.9821   20.5781 C   0  0  0  0  0  0  0  0  0  0  0  0
   10.3850    4.6575   23.2386 O   0  0  0  0  0  0  0  0  0  0  0  0
    4.2069    6.8450   20.7994 C   0  0  0  0  0  0  0  0  0  0  0  0
    3.0726   10.1043   19.8522 O   0  0  0  0  0  0  0  0  0  0  0  0
    5.5057    7.1196   21.1155 C   0  0  0  0  0  0  0  0  0  0  0  0
    7.0367   11.0229   21.9948 O   0  0  0  0  0  0  0  0  0  0  0  0
  1  8  4  0
  1 12  4  0
  2  9  1  0
  2 11  4  0
  2 25  4  0
  3 12  4  0
  3 14  1  0
  3 23  4  0
  4 13  4  0
  4 21  4  0
  4 24  1  0
  5  8  4  0
  5 23  4  0
  6 18  2  0
  7 15  4  0
  7 16  1  0
  7 27  4  0
  8 18  1  0
 10 18  1  0
 10 20  1  0
 11 15  4  0
 11 26  1  0
 13 22  4  0
 16 19  1  0
 16 20  2  0
 17 19  4  0
 17 21  4  0
 19 22  4  0
 20 28  1  0
 25 27  4  0
M  END
$$$$

 Created by Python create_sdf_string function

 28 30  0  0  0  0  0  0  0  0999 V2000
   11.4592   11.2893   18.7941 C   0  0  0  0  0  0  0  0  0  0  0  0
    3.4202    7.9009   20.3866 C   0  0  0  0  0  0  0  0  0  0  0  0
   13.5280   10.3522   19.3586 C   0  0  0  0  0  0  0  0  0  0  0  0
    9.6923    5.6468   22.7891 C   0  0  0  0  0  0  0  0  0  0  0  0
   11.7756   10.2554   20.8841 N   0  0  0  0  0  0  0  0  0  0  0  0
    8.9876   11.9370   19.8757 O   0  0  0  0  0  0  0  0  0  0  0  0
    6.0167    8.4478   21.1089 C   0  0  0  0  0  0  0  0  0  0  0  0
   11.0002   10.8890   20.0262 C   0  0  0  0  0  0  0  0  0  0  0  0
    2.1721    7.7393   20.0315 O   0  0  0  0  0  0  0  0  0  0  0  0
    9.1107   10.3880   21.3769 N   0  0  0  0  0  0  0  0  0  0  0  0
    3.9102    9.2008   20.3124 C   0  0  0  0  0  0  0  0  0  0  0  0
   12.7292   10.9960   18.4597 C   0  0  0  0  0  0  0  0  0  0  0  0
    9.3798    6.6793   23.6625 C   0  0  0  0  0  0  0  0  0  0  0  0
   14.7425   10.0739   19.0802 O   0  0  0  0  0  0  0  0  0  0  0  0
    5.1894    9.4673   20.7118 C   0  0  0  0  0  0  0  0  0  0  0  0
    7.3773    8.8224   21.4870 C   0  0  0  0  0  0  0  0  0  0  0  0
    8.4391    6.6439   21.0235 C   0  0  0  0  0  0  0  0  0  0  0  0
    9.6494   11.1353   20.4167 C   0  0  0  0  0  0  0  0  0  0  0  0
    8.1431    7.6829   21.9046 C   0  0  0  0  0  0  0  0  0  0  0  0
    7.7796   10.1314   21.5115 N   0  0  0  0  0  0  0  0  0  0  0  0
    9.2768    5.6183   21.4437 C   0  0  0  0  0  0  0  0  0  0  0  0
    8.6315    7.7322   23.1768 C   0  0  0  0  0  0  0  0  0  0  0  0
   13.0537    9.9821   20.5781 C   0  0  0  0  0  0  0  0  0  0  0  0
   10.3850    4.6575   23.2386 O   0  0  0  0  0  0  0  0  0  0  0  0
    4.2069    6.8450   20.7994 C   0  0  0  0  0  0  0  0  0  0  0  0
    3.0726   10.1043   19.8522 O   0  0  0  0  0  0  0  0  0  0  0  0
    5.5057    7.1196   21.1155 C   0  0  0  0  0  0  0  0  0  0  0  0
    7.0367   11.0229   21.9948 O   0  0  0  0  0  0  0  0  0  0  0  0
  1  8  4  0
  1 12  4  0
  2  9  1  0
  2 11  4  0
  2 25  4  0
  3 12  4  0
  3 14  1  0
  3 23  4  0
  4 13  4  0
  4 21  4  0
  4 24  1  0
  5  8  4  0
  5 23  4  0
  6 18  2  0
  7 15  4  0
  7 16  1  0
  7 27  4  0
  8 18  1  0
 10 18  1  0
 10 20  1  0
 11 15  4  0
 11 26  1  0
 13 22  4  0
 16 19  1  0
 16 20  2  0
 17 19  4  0
 17 21  4  0
 19 22  4  0
 20 28  1  0
 25 27  4  0
M  END
$$$$

 Created by Python create_sdf_string function

 28 30  0  0  0  0  0  0  0  0999 V2000
   11.4592   11.2893   18.7941 C   0  0  0  0  0  0  0  0  0  0  0  0
    3.4202    7.9009   20.3866 C   0  0  0  0  0  0  0  0  0  0  0  0
   13.5280   10.3522   19.3586 C   0  0  0  0  0  0  0  0  0  0  0  0
    9.6923    5.6468   22.7891 C   0  0  0  0  0  0  0  0  0  0  0  0
   11.7756   10.2554   20.8841 N   0  0  0  0  0  0  0  0  0  0  0  0
    8.9876   11.9370   19.8757 O   0  0  0  0  0  0  0  0  0  0  0  0
    6.0167    8.4478   21.1089 C   0  0  0  0  0  0  0  0  0  0  0  0
   11.0002   10.8890   20.0262 C   0  0  0  0  0  0  0  0  0  0  0  0
    2.1721    7.7393   20.0315 O   0  0  0  0  0  0  0  0  0  0  0  0
    9.1107   10.3880   21.3769 N   0  0  0  0  0  0  0  0  0  0  0  0
    3.9102    9.2008   20.3124 C   0  0  0  0  0  0  0  0  0  0  0  0
   12.7292   10.9960   18.4597 C   0  0  0  0  0  0  0  0  0  0  0  0
    9.3798    6.6793   23.6625 C   0  0  0  0  0  0  0  0  0  0  0  0
   14.7425   10.0739   19.0802 O   0  0  0  0  0  0  0  0  0  0  0  0
    5.1894    9.4673   20.7118 C   0  0  0  0  0  0  0  0  0  0  0  0
    7.3773    8.8224   21.4870 C   0  0  0  0  0  0  0  0  0  0  0  0
    8.4391    6.6439   21.0235 C   0  0  0  0  0  0  0  0  0  0  0  0
    9.6494   11.1353   20.4167 C   0  0  0  0  0  0  0  0  0  0  0  0
    8.1431    7.6829   21.9046 C   0  0  0  0  0  0  0  0  0  0  0  0
    7.7796   10.1314   21.5115 N   0  0  0  0  0  0  0  0  0  0  0  0
    9.2768    5.6183   21.4437 C   0  0  0  0  0  0  0  0  0  0  0  0
    8.6315    7.7322   23.1768 C   0  0  0  0  0  0  0  0  0  0  0  0
   13.0537    9.9821   20.5781 C   0  0  0  0  0  0  0  0  0  0  0  0
   10.3850    4.6575   23.2386 O   0  0  0  0  0  0  0  0  0  0  0  0
    4.2069    6.8450   20.7994 C   0  0  0  0  0  0  0  0  0  0  0  0
    3.0726   10.1043   19.8522 O   0  0  0  0  0  0  0  0  0  0  0  0
    5.5057    7.1196   21.1155 C   0  0  0  0  0  0  0  0  0  0  0  0
    7.0367   11.0229   21.9948 O   0  0  0  0  0  0  0  0  0  0  0  0
  1  8  4  0
  1 12  4  0
  2  9  1  0
  2 11  4  0
  2 25  4  0
  3 12  4  0
  3 14  1  0
  3 23  4  0
  4 13  4  0
  4 21  4  0
  4 24  1  0
  5  8  4  0
  5 23  4  0
  6 18  2  0
  7 15  4  0
  7 16  1  0
  7 27  4  0
  8 18  1  0
 10 18  1  0
 10 20  1  0
 11 15  4  0
 11 26  1  0
 13 22  4  0
 16 19  1  0
 16 20  2  0
 17 19  4  0
 17 21  4  0
 19 22  4  0
 20 28  1  0
 25 27  4  0
M  END
$$$$

 Created by Python create_sdf_string function

 28 30  0  0  0  0  0  0  0  0999 V2000
   11.4592   11.2893   18.7941 C   0  0  0  0  0  0  0  0  0  0  0  0
    3.4202    7.9009   20.3866 C   0  0  0  0  0  0  0  0  0  0  0  0
   13.5280   10.3522   19.3586 C   0  0  0  0  0  0  0  0  0  0  0  0
    9.6923    5.6468   22.7891 C   0  0  0  0  0  0  0  0  0  0  0  0
   11.7756   10.2554   20.8841 N   0  0  0  0  0  0  0  0  0  0  0  0
    8.9876   11.9370   19.8757 O   0  0  0  0  0  0  0  0  0  0  0  0
    6.0167    8.4478   21.1089 C   0  0  0  0  0  0  0  0  0  0  0  0
   11.0002   10.8890   20.0262 C   0  0  0  0  0  0  0  0  0  0  0  0
    2.1721    7.7393   20.0315 O   0  0  0  0  0  0  0  0  0  0  0  0
    9.1107   10.3880   21.3769 N   0  0  0  0  0  0  0  0  0  0  0  0
    3.9102    9.2008   20.3124 C   0  0  0  0  0  0  0  0  0  0  0  0
   12.7292   10.9960   18.4597 C   0  0  0  0  0  0  0  0  0  0  0  0
    9.3798    6.6793   23.6625 C   0  0  0  0  0  0  0  0  0  0  0  0
   14.7425   10.0739   19.0802 O   0  0  0  0  0  0  0  0  0  0  0  0
    5.1894    9.4673   20.7118 C   0  0  0  0  0  0  0  0  0  0  0  0
    7.3773    8.8224   21.4870 C   0  0  0  0  0  0  0  0  0  0  0  0
    8.4391    6.6439   21.0235 C   0  0  0  0  0  0  0  0  0  0  0  0
    9.6494   11.1353   20.4167 C   0  0  0  0  0  0  0  0  0  0  0  0
    8.1431    7.6829   21.9046 C   0  0  0  0  0  0  0  0  0  0  0  0
    7.7796   10.1314   21.5115 N   0  0  0  0  0  0  0  0  0  0  0  0
    9.2768    5.6183   21.4437 C   0  0  0  0  0  0  0  0  0  0  0  0
    8.6315    7.7322   23.1768 C   0  0  0  0  0  0  0  0  0  0  0  0
   13.0537    9.9821   20.5781 C   0  0  0  0  0  0  0  0  0  0  0  0
   10.3850    4.6575   23.2386 O   0  0  0  0  0  0  0  0  0  0  0  0
    4.2069    6.8450   20.7994 C   0  0  0  0  0  0  0  0  0  0  0  0
    3.0726   10.1043   19.8522 O   0  0  0  0  0  0  0  0  0  0  0  0
    5.5057    7.1196   21.1155 C   0  0  0  0  0  0  0  0  0  0  0  0
    7.0367   11.0229   21.9948 O   0  0  0  0  0  0  0  0  0  0  0  0
  1  8  4  0
  1 12  4  0
  2  9  1  0
  2 11  4  0
  2 25  4  0
  3 12  4  0
  3 14  1  0
  3 23  4  0
  4 13  4  0
  4 21  4  0
  4 24  1  0
  5  8  4  0
  5 23  4  0
  6 18  2  0
  7 15  4  0
  7 16  1  0
  7 27  4  0
  8 18  1  0
 10 18  1  0
 10 20  1  0
 11 15  4  0
 11 26  1  0
 13 22  4  0
 16 19  1  0
 16 20  2  0
 17 19  4  0
 17 21  4  0
 19 22  4  0
 20 28  1  0
 25 27  4  0
M  END
$$$$

 Created by Python create_sdf_string function

 28 30  0  0  0  0  0  0  0  0999 V2000
   11.4592   11.2893   18.7941 C   0  0  0  0  0  0  0  0  0  0  0  0
    3.4202    7.9009   20.3866 C   0  0  0  0  0  0  0  0  0  0  0  0
   13.5280   10.3522   19.3586 C   0  0  0  0  0  0  0  0  0  0  0  0
    9.6923    5.6468   22.7891 C   0  0  0  0  0  0  0  0  0  0  0  0
   11.7756   10.2554   20.8841 N   0  0  0  0  0  0  0  0  0  0  0  0
    8.9876   11.9370   19.8757 O   0  0  0  0  0  0  0  0  0  0  0  0
    6.0167    8.4478   21.1089 C   0  0  0  0  0  0  0  0  0  0  0  0
   11.0002   10.8890   20.0262 C   0  0  0  0  0  0  0  0  0  0  0  0
    2.1721    7.7393   20.0315 O   0  0  0  0  0  0  0  0  0  0  0  0
    9.1107   10.3880   21.3769 N   0  0  0  0  0  0  0  0  0  0  0  0
    3.9102    9.2008   20.3124 C   0  0  0  0  0  0  0  0  0  0  0  0
   12.7292   10.9960   18.4597 C   0  0  0  0  0  0  0  0  0  0  0  0
    9.3798    6.6793   23.6625 C   0  0  0  0  0  0  0  0  0  0  0  0
   14.7425   10.0739   19.0802 O   0  0  0  0  0  0  0  0  0  0  0  0
    5.1894    9.4673   20.7118 C   0  0  0  0  0  0  0  0  0  0  0  0
    7.3773    8.8224   21.4870 C   0  0  0  0  0  0  0  0  0  0  0  0
    8.4391    6.6439   21.0235 C   0  0  0  0  0  0  0  0  0  0  0  0
    9.6494   11.1353   20.4167 C   0  0  0  0  0  0  0  0  0  0  0  0
    8.1431    7.6829   21.9046 C   0  0  0  0  0  0  0  0  0  0  0  0
    7.7796   10.1314   21.5115 N   0  0  0  0  0  0  0  0  0  0  0  0
    9.2768    5.6183   21.4437 C   0  0  0  0  0  0  0  0  0  0  0  0
    8.6315    7.7322   23.1768 C   0  0  0  0  0  0  0  0  0  0  0  0
   13.0537    9.9821   20.5781 C   0  0  0  0  0  0  0  0  0  0  0  0
   10.3850    4.6575   23.2386 O   0  0  0  0  0  0  0  0  0  0  0  0
    4.2069    6.8450   20.7994 C   0  0  0  0  0  0  0  0  0  0  0  0
    3.0726   10.1043   19.8522 O   0  0  0  0  0  0  0  0  0  0  0  0
    5.5057    7.1196   21.1155 C   0  0  0  0  0  0  0  0  0  0  0  0
    7.0367   11.0229   21.9948 O   0  0  0  0  0  0  0  0  0  0  0  0
  1  8  4  0
  1 12  4  0
  2  9  1  0
  2 11  4  0
  2 25  4  0
  3 12  4  0
  3 14  1  0
  3 23  4  0
  4 13  4  0
  4 21  4  0
  4 24  1  0
  5  8  4  0
  5 23  4  0
  6 18  2  0
  7 15  4  0
  7 16  1  0
  7 27  4  0
  8 18  1  0
 10 18  1  0
 10 20  1  0
 11 15  4  0
 11 26  1  0
 13 22  4  0
 16 19  1  0
 16 20  2  0
 17 19  4  0
 17 21  4  0
 19 22  4  0
 20 28  1  0
 25 27  4  0
M  END
$$$$

 Created by Python create_sdf_string function

 28 30  0  0  0  0  0  0  0  0999 V2000
   11.4592   11.2893   18.7941 C   0  0  0  0  0  0  0  0  0  0  0  0
    3.4202    7.9009   20.3866 C   0  0  0  0  0  0  0  0  0  0  0  0
   13.5280   10.3522   19.3586 C   0  0  0  0  0  0  0  0  0  0  0  0
    9.6923    5.6468   22.7891 C   0  0  0  0  0  0  0  0  0  0  0  0
   11.7756   10.2554   20.8841 N   0  0  0  0  0  0  0  0  0  0  0  0
    8.9876   11.9370   19.8757 O   0  0  0  0  0  0  0  0  0  0  0  0
    6.0167    8.4478   21.1089 C   0  0  0  0  0  0  0  0  0  0  0  0
   11.0002   10.8890   20.0262 C   0  0  0  0  0  0  0  0  0  0  0  0
    2.1721    7.7393   20.0315 O   0  0  0  0  0  0  0  0  0  0  0  0
    9.1107   10.3880   21.3769 N   0  0  0  0  0  0  0  0  0  0  0  0
    3.9102    9.2008   20.3124 C   0  0  0  0  0  0  0  0  0  0  0  0
   12.7292   10.9960   18.4597 C   0  0  0  0  0  0  0  0  0  0  0  0
    9.3798    6.6793   23.6625 C   0  0  0  0  0  0  0  0  0  0  0  0
   14.7425   10.0739   19.0802 O   0  0  0  0  0  0  0  0  0  0  0  0
    5.1894    9.4673   20.7118 C   0  0  0  0  0  0  0  0  0  0  0  0
    7.3773    8.8224   21.4870 C   0  0  0  0  0  0  0  0  0  0  0  0
    8.4391    6.6439   21.0235 C   0  0  0  0  0  0  0  0  0  0  0  0
    9.6494   11.1353   20.4167 C   0  0  0  0  0  0  0  0  0  0  0  0
    8.1431    7.6829   21.9046 C   0  0  0  0  0  0  0  0  0  0  0  0
    7.7796   10.1314   21.5115 N   0  0  0  0  0  0  0  0  0  0  0  0
    9.2768    5.6183   21.4437 C   0  0  0  0  0  0  0  0  0  0  0  0
    8.6315    7.7322   23.1768 C   0  0  0  0  0  0  0  0  0  0  0  0
   13.0537    9.9821   20.5781 C   0  0  0  0  0  0  0  0  0  0  0  0
   10.3850    4.6575   23.2386 O   0  0  0  0  0  0  0  0  0  0  0  0
    4.2069    6.8450   20.7994 C   0  0  0  0  0  0  0  0  0  0  0  0
    3.0726   10.1043   19.8522 O   0  0  0  0  0  0  0  0  0  0  0  0
    5.5057    7.1196   21.1155 C   0  0  0  0  0  0  0  0  0  0  0  0
    7.0367   11.0229   21.9948 O   0  0  0  0  0  0  0  0  0  0  0  0
  1  8  4  0
  1 12  4  0
  2  9  1  0
  2 11  4  0
  2 25  4  0
  3 12  4  0
  3 14  1  0
  3 23  4  0
  4 13  4  0
  4 21  4  0
  4 24  1  0
  5  8  4  0
  5 23  4  0
  6 18  2  0
  7 15  4  0
  7 16  1  0
  7 27  4  0
  8 18  1  0
 10 18  1  0
 10 20  1  0
 11 15  4  0
 11 26  1  0
 13 22  4  0
 16 19  1  0
 16 20  2  0
 17 19  4  0
 17 21  4  0
 19 22  4  0
 20 28  1  0
 25 27  4  0
M  END
$$$$

 Created by Python create_sdf_string function

 28 30  0  0  0  0  0  0  0  0999 V2000
   11.4592   11.2893   18.7941 C   0  0  0  0  0  0  0  0  0  0  0  0
    3.4202    7.9009   20.3866 C   0  0  0  0  0  0  0  0  0  0  0  0
   13.5280   10.3522   19.3586 C   0  0  0  0  0  0  0  0  0  0  0  0
    9.6923    5.6468   22.7891 C   0  0  0  0  0  0  0  0  0  0  0  0
   11.7756   10.2554   20.8841 N   0  0  0  0  0  0  0  0  0  0  0  0
    8.9876   11.9370   19.8757 O   0  0  0  0  0  0  0  0  0  0  0  0
    6.0167    8.4478   21.1089 C   0  0  0  0  0  0  0  0  0  0  0  0
   11.0002   10.8890   20.0262 C   0  0  0  0  0  0  0  0  0  0  0  0
    2.1721    7.7393   20.0315 O   0  0  0  0  0  0  0  0  0  0  0  0
    9.1107   10.3880   21.3769 N   0  0  0  0  0  0  0  0  0  0  0  0
    3.9102    9.2008   20.3124 C   0  0  0  0  0  0  0  0  0  0  0  0
   12.7292   10.9960   18.4597 C   0  0  0  0  0  0  0  0  0  0  0  0
    9.3798    6.6793   23.6625 C   0  0  0  0  0  0  0  0  0  0  0  0
   14.7425   10.0739   19.0802 O   0  0  0  0  0  0  0  0  0  0  0  0
    5.1894    9.4673   20.7118 C   0  0  0  0  0  0  0  0  0  0  0  0
    7.3773    8.8224   21.4870 C   0  0  0  0  0  0  0  0  0  0  0  0
    8.4391    6.6439   21.0235 C   0  0  0  0  0  0  0  0  0  0  0  0
    9.6494   11.1353   20.4167 C   0  0  0  0  0  0  0  0  0  0  0  0
    8.1431    7.6829   21.9046 C   0  0  0  0  0  0  0  0  0  0  0  0
    7.7796   10.1314   21.5115 N   0  0  0  0  0  0  0  0  0  0  0  0
    9.2768    5.6183   21.4437 C   0  0  0  0  0  0  0  0  0  0  0  0
    8.6315    7.7322   23.1768 C   0  0  0  0  0  0  0  0  0  0  0  0
   13.0537    9.9821   20.5781 C   0  0  0  0  0  0  0  0  0  0  0  0
   10.3850    4.6575   23.2386 O   0  0  0  0  0  0  0  0  0  0  0  0
    4.2069    6.8450   20.7994 C   0  0  0  0  0  0  0  0  0  0  0  0
    3.0726   10.1043   19.8522 O   0  0  0  0  0  0  0  0  0  0  0  0
    5.5057    7.1196   21.1155 C   0  0  0  0  0  0  0  0  0  0  0  0
    7.0367   11.0229   21.9948 O   0  0  0  0  0  0  0  0  0  0  0  0
  1  8  4  0
  1 12  4  0
  2  9  1  0
  2 11  4  0
  2 25  4  0
  3 12  4  0
  3 14  1  0
  3 23  4  0
  4 13  4  0
  4 21  4  0
  4 24  1  0
  5  8  4  0
  5 23  4  0
  6 18  2  0
  7 15  4  0
  7 16  1  0
  7 27  4  0
  8 18  1  0
 10 18  1  0
 10 20  1  0
 11 15  4  0
 11 26  1  0
 13 22  4  0
 16 19  1  0
 16 20  2  0
 17 19  4  0
 17 21  4  0
 19 22  4  0
 20 28  1  0
 25 27  4  0
M  END
$$$$

 Created by Python create_sdf_string function

 28 30  0  0  0  0  0  0  0  0999 V2000
   11.4592   11.2893   18.7941 C   0  0  0  0  0  0  0  0  0  0  0  0
    3.4202    7.9009   20.3866 C   0  0  0  0  0  0  0  0  0  0  0  0
   13.5280   10.3522   19.3586 C   0  0  0  0  0  0  0  0  0  0  0  0
    9.6923    5.6468   22.7891 C   0  0  0  0  0  0  0  0  0  0  0  0
   11.7756   10.2554   20.8841 N   0  0  0  0  0  0  0  0  0  0  0  0
    8.9876   11.9370   19.8757 O   0  0  0  0  0  0  0  0  0  0  0  0
    6.0167    8.4478   21.1089 C   0  0  0  0  0  0  0  0  0  0  0  0
   11.0002   10.8890   20.0262 C   0  0  0  0  0  0  0  0  0  0  0  0
    2.1721    7.7393   20.0315 O   0  0  0  0  0  0  0  0  0  0  0  0
    9.1107   10.3880   21.3769 N   0  0  0  0  0  0  0  0  0  0  0  0
    3.9102    9.2008   20.3124 C   0  0  0  0  0  0  0  0  0  0  0  0
   12.7292   10.9960   18.4597 C   0  0  0  0  0  0  0  0  0  0  0  0
    9.3798    6.6793   23.6625 C   0  0  0  0  0  0  0  0  0  0  0  0
   14.7425   10.0739   19.0802 O   0  0  0  0  0  0  0  0  0  0  0  0
    5.1894    9.4673   20.7118 C   0  0  0  0  0  0  0  0  0  0  0  0
    7.3773    8.8224   21.4870 C   0  0  0  0  0  0  0  0  0  0  0  0
    8.4391    6.6439   21.0235 C   0  0  0  0  0  0  0  0  0  0  0  0
    9.6494   11.1353   20.4167 C   0  0  0  0  0  0  0  0  0  0  0  0
    8.1431    7.6829   21.9046 C   0  0  0  0  0  0  0  0  0  0  0  0
    7.7796   10.1314   21.5115 N   0  0  0  0  0  0  0  0  0  0  0  0
    9.2768    5.6183   21.4437 C   0  0  0  0  0  0  0  0  0  0  0  0
    8.6315    7.7322   23.1768 C   0  0  0  0  0  0  0  0  0  0  0  0
   13.0537    9.9821   20.5781 C   0  0  0  0  0  0  0  0  0  0  0  0
   10.3850    4.6575   23.2386 O   0  0  0  0  0  0  0  0  0  0  0  0
    4.2069    6.8450   20.7994 C   0  0  0  0  0  0  0  0  0  0  0  0
    3.0726   10.1043   19.8522 O   0  0  0  0  0  0  0  0  0  0  0  0
    5.5057    7.1196   21.1155 C   0  0  0  0  0  0  0  0  0  0  0  0
    7.0367   11.0229   21.9948 O   0  0  0  0  0  0  0  0  0  0  0  0
  1  8  4  0
  1 12  4  0
  2  9  1  0
  2 11  4  0
  2 25  4  0
  3 12  4  0
  3 14  1  0
  3 23  4  0
  4 13  4  0
  4 21  4  0
  4 24  1  0
  5  8  4  0
  5 23  4  0
  6 18  2  0
  7 15  4  0
  7 16  1  0
  7 27  4  0
  8 18  1  0
 10 18  1  0
 10 20  1  0
 11 15  4  0
 11 26  1  0
 13 22  4  0
 16 19  1  0
 16 20  2  0
 17 19  4  0
 17 21  4  0
 19 22  4  0
 20 28  1  0
 25 27  4  0
M  END
$$$$

 Created by Python create_sdf_string function

 28 30  0  0  0  0  0  0  0  0999 V2000
   11.4592   11.2893   18.7941 C   0  0  0  0  0  0  0  0  0  0  0  0
    3.4202    7.9009   20.3866 C   0  0  0  0  0  0  0  0  0  0  0  0
   13.5280   10.3522   19.3586 C   0  0  0  0  0  0  0  0  0  0  0  0
    9.6923    5.6468   22.7891 C   0  0  0  0  0  0  0  0  0  0  0  0
   11.7756   10.2554   20.8841 N   0  0  0  0  0  0  0  0  0  0  0  0
    8.9876   11.9370   19.8757 O   0  0  0  0  0  0  0  0  0  0  0  0
    6.0167    8.4478   21.1089 C   0  0  0  0  0  0  0  0  0  0  0  0
   11.0002   10.8890   20.0262 C   0  0  0  0  0  0  0  0  0  0  0  0
    2.1721    7.7393   20.0315 O   0  0  0  0  0  0  0  0  0  0  0  0
    9.1107   10.3880   21.3769 N   0  0  0  0  0  0  0  0  0  0  0  0
    3.9102    9.2008   20.3124 C   0  0  0  0  0  0  0  0  0  0  0  0
   12.7292   10.9960   18.4597 C   0  0  0  0  0  0  0  0  0  0  0  0
    9.3798    6.6793   23.6625 C   0  0  0  0  0  0  0  0  0  0  0  0
   14.7425   10.0739   19.0802 O   0  0  0  0  0  0  0  0  0  0  0  0
    5.1894    9.4673   20.7118 C   0  0  0  0  0  0  0  0  0  0  0  0
    7.3773    8.8224   21.4870 C   0  0  0  0  0  0  0  0  0  0  0  0
    8.4391    6.6439   21.0235 C   0  0  0  0  0  0  0  0  0  0  0  0
    9.6494   11.1353   20.4167 C   0  0  0  0  0  0  0  0  0  0  0  0
    8.1431    7.6829   21.9046 C   0  0  0  0  0  0  0  0  0  0  0  0
    7.7796   10.1314   21.5115 N   0  0  0  0  0  0  0  0  0  0  0  0
    9.2768    5.6183   21.4437 C   0  0  0  0  0  0  0  0  0  0  0  0
    8.6315    7.7322   23.1768 C   0  0  0  0  0  0  0  0  0  0  0  0
   13.0537    9.9821   20.5781 C   0  0  0  0  0  0  0  0  0  0  0  0
   10.3850    4.6575   23.2386 O   0  0  0  0  0  0  0  0  0  0  0  0
    4.2069    6.8450   20.7994 C   0  0  0  0  0  0  0  0  0  0  0  0
    3.0726   10.1043   19.8522 O   0  0  0  0  0  0  0  0  0  0  0  0
    5.5057    7.1196   21.1155 C   0  0  0  0  0  0  0  0  0  0  0  0
    7.0367   11.0229   21.9948 O   0  0  0  0  0  0  0  0  0  0  0  0
  1  8  4  0
  1 12  4  0
  2  9  1  0
  2 11  4  0
  2 25  4  0
  3 12  4  0
  3 14  1  0
  3 23  4  0
  4 13  4  0
  4 21  4  0
  4 24  1  0
  5  8  4  0
  5 23  4  0
  6 18  2  0
  7 15  4  0
  7 16  1  0
  7 27  4  0
  8 18  1  0
 10 18  1  0
 10 20  1  0
 11 15  4  0
 11 26  1  0
 13 22  4  0
 16 19  1  0
 16 20  2  0
 17 19  4  0
 17 21  4  0
 19 22  4  0
 20 28  1  0
 25 27  4  0
M  END
$$$$

 Created by Python create_sdf_string function

 28 30  0  0  0  0  0  0  0  0999 V2000
   11.4592   11.2893   18.7941 C   0  0  0  0  0  0  0  0  0  0  0  0
    3.4202    7.9009   20.3866 C   0  0  0  0  0  0  0  0  0  0  0  0
   13.5280   10.3522   19.3586 C   0  0  0  0  0  0  0  0  0  0  0  0
    9.6923    5.6468   22.7891 C   0  0  0  0  0  0  0  0  0  0  0  0
   11.7756   10.2554   20.8841 N   0  0  0  0  0  0  0  0  0  0  0  0
    8.9876   11.9370   19.8757 O   0  0  0  0  0  0  0  0  0  0  0  0
    6.0167    8.4478   21.1089 C   0  0  0  0  0  0  0  0  0  0  0  0
   11.0002   10.8890   20.0262 C   0  0  0  0  0  0  0  0  0  0  0  0
    2.1721    7.7393   20.0315 O   0  0  0  0  0  0  0  0  0  0  0  0
    9.1107   10.3880   21.3769 N   0  0  0  0  0  0  0  0  0  0  0  0
    3.9102    9.2008   20.3124 C   0  0  0  0  0  0  0  0  0  0  0  0
   12.7292   10.9960   18.4597 C   0  0  0  0  0  0  0  0  0  0  0  0
    9.3798    6.6793   23.6625 C   0  0  0  0  0  0  0  0  0  0  0  0
   14.7425   10.0739   19.0802 O   0  0  0  0  0  0  0  0  0  0  0  0
    5.1894    9.4673   20.7118 C   0  0  0  0  0  0  0  0  0  0  0  0
    7.3773    8.8224   21.4870 C   0  0  0  0  0  0  0  0  0  0  0  0
    8.4391    6.6439   21.0235 C   0  0  0  0  0  0  0  0  0  0  0  0
    9.6494   11.1353   20.4167 C   0  0  0  0  0  0  0  0  0  0  0  0
    8.1431    7.6829   21.9046 C   0  0  0  0  0  0  0  0  0  0  0  0
    7.7796   10.1314   21.5115 N   0  0  0  0  0  0  0  0  0  0  0  0
    9.2768    5.6183   21.4437 C   0  0  0  0  0  0  0  0  0  0  0  0
    8.6315    7.7322   23.1768 C   0  0  0  0  0  0  0  0  0  0  0  0
   13.0537    9.9821   20.5781 C   0  0  0  0  0  0  0  0  0  0  0  0
   10.3850    4.6575   23.2386 O   0  0  0  0  0  0  0  0  0  0  0  0
    4.2069    6.8450   20.7994 C   0  0  0  0  0  0  0  0  0  0  0  0
    3.0726   10.1043   19.8522 O   0  0  0  0  0  0  0  0  0  0  0  0
    5.5057    7.1196   21.1155 C   0  0  0  0  0  0  0  0  0  0  0  0
    7.0367   11.0229   21.9948 O   0  0  0  0  0  0  0  0  0  0  0  0
  1  8  4  0
  1 12  4  0
  2  9  1  0
  2 11  4  0
  2 25  4  0
  3 12  4  0
  3 14  1  0
  3 23  4  0
  4 13  4  0
  4 21  4  0
  4 24  1  0
  5  8  4  0
  5 23  4  0
  6 18  2  0
  7 15  4  0
  7 16  1  0
  7 27  4  0
  8 18  1  0
 10 18  1  0
 10 20  1  0
 11 15  4  0
 11 26  1  0
 13 22  4  0
 16 19  1  0
 16 20  2  0
 17 19  4  0
 17 21  4  0
 19 22  4  0
 20 28  1  0
 25 27  4  0
M  END
$$$$

 Created by Python create_sdf_string function

 28 30  0  0  0  0  0  0  0  0999 V2000
   11.4592   11.2893   18.7941 C   0  0  0  0  0  0  0  0  0  0  0  0
    3.4202    7.9009   20.3866 C   0  0  0  0  0  0  0  0  0  0  0  0
   13.5280   10.3522   19.3586 C   0  0  0  0  0  0  0  0  0  0  0  0
    9.6923    5.6468   22.7891 C   0  0  0  0  0  0  0  0  0  0  0  0
   11.7756   10.2554   20.8841 N   0  0  0  0  0  0  0  0  0  0  0  0
    8.9876   11.9370   19.8757 O   0  0  0  0  0  0  0  0  0  0  0  0
    6.0167    8.4478   21.1089 C   0  0  0  0  0  0  0  0  0  0  0  0
   11.0002   10.8890   20.0262 C   0  0  0  0  0  0  0  0  0  0  0  0
    2.1721    7.7393   20.0315 O   0  0  0  0  0  0  0  0  0  0  0  0
    9.1107   10.3880   21.3769 N   0  0  0  0  0  0  0  0  0  0  0  0
    3.9102    9.2008   20.3124 C   0  0  0  0  0  0  0  0  0  0  0  0
   12.7292   10.9960   18.4597 C   0  0  0  0  0  0  0  0  0  0  0  0
    9.3798    6.6793   23.6625 C   0  0  0  0  0  0  0  0  0  0  0  0
   14.7425   10.0739   19.0802 O   0  0  0  0  0  0  0  0  0  0  0  0
    5.1894    9.4673   20.7118 C   0  0  0  0  0  0  0  0  0  0  0  0
    7.3773    8.8224   21.4870 C   0  0  0  0  0  0  0  0  0  0  0  0
    8.4391    6.6439   21.0235 C   0  0  0  0  0  0  0  0  0  0  0  0
    9.6494   11.1353   20.4167 C   0  0  0  0  0  0  0  0  0  0  0  0
    8.1431    7.6829   21.9046 C   0  0  0  0  0  0  0  0  0  0  0  0
    7.7796   10.1314   21.5115 N   0  0  0  0  0  0  0  0  0  0  0  0
    9.2768    5.6183   21.4437 C   0  0  0  0  0  0  0  0  0  0  0  0
    8.6315    7.7322   23.1768 C   0  0  0  0  0  0  0  0  0  0  0  0
   13.0537    9.9821   20.5781 C   0  0  0  0  0  0  0  0  0  0  0  0
   10.3850    4.6575   23.2386 O   0  0  0  0  0  0  0  0  0  0  0  0
    4.2069    6.8450   20.7994 C   0  0  0  0  0  0  0  0  0  0  0  0
    3.0726   10.1043   19.8522 O   0  0  0  0  0  0  0  0  0  0  0  0
    5.5057    7.1196   21.1155 C   0  0  0  0  0  0  0  0  0  0  0  0
    7.0367   11.0229   21.9948 O   0  0  0  0  0  0  0  0  0  0  0  0
  1  8  4  0
  1 12  4  0
  2  9  1  0
  2 11  4  0
  2 25  4  0
  3 12  4  0
  3 14  1  0
  3 23  4  0
  4 13  4  0
  4 21  4  0
  4 24  1  0
  5  8  4  0
  5 23  4  0
  6 18  2  0
  7 15  4  0
  7 16  1  0
  7 27  4  0
  8 18  1  0
 10 18  1  0
 10 20  1  0
 11 15  4  0
 11 26  1  0
 13 22  4  0
 16 19  1  0
 16 20  2  0
 17 19  4  0
 17 21  4  0
 19 22  4  0
 20 28  1  0
 25 27  4  0
M  END
$$$$

 Created by Python create_sdf_string function

 28 30  0  0  0  0  0  0  0  0999 V2000
   11.4592   11.2893   18.7941 C   0  0  0  0  0  0  0  0  0  0  0  0
    3.4202    7.9009   20.3866 C   0  0  0  0  0  0  0  0  0  0  0  0
   13.5280   10.3522   19.3586 C   0  0  0  0  0  0  0  0  0  0  0  0
    9.6923    5.6468   22.7891 C   0  0  0  0  0  0  0  0  0  0  0  0
   11.7756   10.2554   20.8841 N   0  0  0  0  0  0  0  0  0  0  0  0
    8.9876   11.9370   19.8757 O   0  0  0  0  0  0  0  0  0  0  0  0
    6.0167    8.4478   21.1089 C   0  0  0  0  0  0  0  0  0  0  0  0
   11.0002   10.8890   20.0262 C   0  0  0  0  0  0  0  0  0  0  0  0
    2.1721    7.7393   20.0315 O   0  0  0  0  0  0  0  0  0  0  0  0
    9.1107   10.3880   21.3769 N   0  0  0  0  0  0  0  0  0  0  0  0
    3.9102    9.2008   20.3124 C   0  0  0  0  0  0  0  0  0  0  0  0
   12.7292   10.9960   18.4597 C   0  0  0  0  0  0  0  0  0  0  0  0
    9.3798    6.6793   23.6625 C   0  0  0  0  0  0  0  0  0  0  0  0
   14.7425   10.0739   19.0802 O   0  0  0  0  0  0  0  0  0  0  0  0
    5.1894    9.4673   20.7118 C   0  0  0  0  0  0  0  0  0  0  0  0
    7.3773    8.8224   21.4870 C   0  0  0  0  0  0  0  0  0  0  0  0
    8.4391    6.6439   21.0235 C   0  0  0  0  0  0  0  0  0  0  0  0
    9.6494   11.1353   20.4167 C   0  0  0  0  0  0  0  0  0  0  0  0
    8.1431    7.6829   21.9046 C   0  0  0  0  0  0  0  0  0  0  0  0
    7.7796   10.1314   21.5115 N   0  0  0  0  0  0  0  0  0  0  0  0
    9.2768    5.6183   21.4437 C   0  0  0  0  0  0  0  0  0  0  0  0
    8.6315    7.7322   23.1768 C   0  0  0  0  0  0  0  0  0  0  0  0
   13.0537    9.9821   20.5781 C   0  0  0  0  0  0  0  0  0  0  0  0
   10.3850    4.6575   23.2386 O   0  0  0  0  0  0  0  0  0  0  0  0
    4.2069    6.8450   20.7994 C   0  0  0  0  0  0  0  0  0  0  0  0
    3.0726   10.1043   19.8522 O   0  0  0  0  0  0  0  0  0  0  0  0
    5.5057    7.1196   21.1155 C   0  0  0  0  0  0  0  0  0  0  0  0
    7.0367   11.0229   21.9948 O   0  0  0  0  0  0  0  0  0  0  0  0
  1  8  4  0
  1 12  4  0
  2  9  1  0
  2 11  4  0
  2 25  4  0
  3 12  4  0
  3 14  1  0
  3 23  4  0
  4 13  4  0
  4 21  4  0
  4 24  1  0
  5  8  4  0
  5 23  4  0
  6 18  2  0
  7 15  4  0
  7 16  1  0
  7 27  4  0
  8 18  1  0
 10 18  1  0
 10 20  1  0
 11 15  4  0
 11 26  1  0
 13 22  4  0
 16 19  1  0
 16 20  2  0
 17 19  4  0
 17 21  4  0
 19 22  4  0
 20 28  1  0
 25 27  4  0
M  END
$$$$

 Created by Python create_sdf_string function

 28 30  0  0  0  0  0  0  0  0999 V2000
   11.4592   11.2893   18.7941 C   0  0  0  0  0  0  0  0  0  0  0  0
    3.4202    7.9009   20.3866 C   0  0  0  0  0  0  0  0  0  0  0  0
   13.5280   10.3522   19.3586 C   0  0  0  0  0  0  0  0  0  0  0  0
    9.6923    5.6468   22.7891 C   0  0  0  0  0  0  0  0  0  0  0  0
   11.7756   10.2554   20.8841 N   0  0  0  0  0  0  0  0  0  0  0  0
    8.9876   11.9370   19.8757 O   0  0  0  0  0  0  0  0  0  0  0  0
    6.0167    8.4478   21.1089 C   0  0  0  0  0  0  0  0  0  0  0  0
   11.0002   10.8890   20.0262 C   0  0  0  0  0  0  0  0  0  0  0  0
    2.1721    7.7393   20.0315 O   0  0  0  0  0  0  0  0  0  0  0  0
    9.1107   10.3880   21.3769 N   0  0  0  0  0  0  0  0  0  0  0  0
    3.9102    9.2008   20.3124 C   0  0  0  0  0  0  0  0  0  0  0  0
   12.7292   10.9960   18.4597 C   0  0  0  0  0  0  0  0  0  0  0  0
    9.3798    6.6793   23.6625 C   0  0  0  0  0  0  0  0  0  0  0  0
   14.7425   10.0739   19.0802 O   0  0  0  0  0  0  0  0  0  0  0  0
    5.1894    9.4673   20.7118 C   0  0  0  0  0  0  0  0  0  0  0  0
    7.3773    8.8224   21.4870 C   0  0  0  0  0  0  0  0  0  0  0  0
    8.4391    6.6439   21.0235 C   0  0  0  0  0  0  0  0  0  0  0  0
    9.6494   11.1353   20.4167 C   0  0  0  0  0  0  0  0  0  0  0  0
    8.1431    7.6829   21.9046 C   0  0  0  0  0  0  0  0  0  0  0  0
    7.7796   10.1314   21.5115 N   0  0  0  0  0  0  0  0  0  0  0  0
    9.2768    5.6183   21.4437 C   0  0  0  0  0  0  0  0  0  0  0  0
    8.6315    7.7322   23.1768 C   0  0  0  0  0  0  0  0  0  0  0  0
   13.0537    9.9821   20.5781 C   0  0  0  0  0  0  0  0  0  0  0  0
   10.3850    4.6575   23.2386 O   0  0  0  0  0  0  0  0  0  0  0  0
    4.2069    6.8450   20.7994 C   0  0  0  0  0  0  0  0  0  0  0  0
    3.0726   10.1043   19.8522 O   0  0  0  0  0  0  0  0  0  0  0  0
    5.5057    7.1196   21.1155 C   0  0  0  0  0  0  0  0  0  0  0  0
    7.0367   11.0229   21.9948 O   0  0  0  0  0  0  0  0  0  0  0  0
  1  8  4  0
  1 12  4  0
  2  9  1  0
  2 11  4  0
  2 25  4  0
  3 12  4  0
  3 14  1  0
  3 23  4  0
  4 13  4  0
  4 21  4  0
  4 24  1  0
  5  8  4  0
  5 23  4  0
  6 18  2  0
  7 15  4  0
  7 16  1  0
  7 27  4  0
  8 18  1  0
 10 18  1  0
 10 20  1  0
 11 15  4  0
 11 26  1  0
 13 22  4  0
 16 19  1  0
 16 20  2  0
 17 19  4  0
 17 21  4  0
 19 22  4  0
 20 28  1  0
 25 27  4  0
M  END
$$$$

 Created by Python create_sdf_string function

 28 30  0  0  0  0  0  0  0  0999 V2000
   11.4592   11.2893   18.7941 C   0  0  0  0  0  0  0  0  0  0  0  0
    3.4202    7.9009   20.3866 C   0  0  0  0  0  0  0  0  0  0  0  0
   13.5280   10.3522   19.3586 C   0  0  0  0  0  0  0  0  0  0  0  0
    9.6923    5.6468   22.7891 C   0  0  0  0  0  0  0  0  0  0  0  0
   11.7756   10.2554   20.8841 N   0  0  0  0  0  0  0  0  0  0  0  0
    8.9876   11.9370   19.8757 O   0  0  0  0  0  0  0  0  0  0  0  0
    6.0167    8.4478   21.1089 C   0  0  0  0  0  0  0  0  0  0  0  0
   11.0002   10.8890   20.0262 C   0  0  0  0  0  0  0  0  0  0  0  0
    2.1721    7.7393   20.0315 O   0  0  0  0  0  0  0  0  0  0  0  0
    9.1107   10.3880   21.3769 N   0  0  0  0  0  0  0  0  0  0  0  0
    3.9102    9.2008   20.3124 C   0  0  0  0  0  0  0  0  0  0  0  0
   12.7292   10.9960   18.4597 C   0  0  0  0  0  0  0  0  0  0  0  0
    9.3798    6.6793   23.6625 C   0  0  0  0  0  0  0  0  0  0  0  0
   14.7425   10.0739   19.0802 O   0  0  0  0  0  0  0  0  0  0  0  0
    5.1894    9.4673   20.7118 C   0  0  0  0  0  0  0  0  0  0  0  0
    7.3773    8.8224   21.4870 C   0  0  0  0  0  0  0  0  0  0  0  0
    8.4391    6.6439   21.0235 C   0  0  0  0  0  0  0  0  0  0  0  0
    9.6494   11.1353   20.4167 C   0  0  0  0  0  0  0  0  0  0  0  0
    8.1431    7.6829   21.9046 C   0  0  0  0  0  0  0  0  0  0  0  0
    7.7796   10.1314   21.5115 N   0  0  0  0  0  0  0  0  0  0  0  0
    9.2768    5.6183   21.4437 C   0  0  0  0  0  0  0  0  0  0  0  0
    8.6315    7.7322   23.1768 C   0  0  0  0  0  0  0  0  0  0  0  0
   13.0537    9.9821   20.5781 C   0  0  0  0  0  0  0  0  0  0  0  0
   10.3850    4.6575   23.2386 O   0  0  0  0  0  0  0  0  0  0  0  0
    4.2069    6.8450   20.7994 C   0  0  0  0  0  0  0  0  0  0  0  0
    3.0726   10.1043   19.8522 O   0  0  0  0  0  0  0  0  0  0  0  0
    5.5057    7.1196   21.1155 C   0  0  0  0  0  0  0  0  0  0  0  0
    7.0367   11.0229   21.9948 O   0  0  0  0  0  0  0  0  0  0  0  0
  1  8  4  0
  1 12  4  0
  2  9  1  0
  2 11  4  0
  2 25  4  0
  3 12  4  0
  3 14  1  0
  3 23  4  0
  4 13  4  0
  4 21  4  0
  4 24  1  0
  5  8  4  0
  5 23  4  0
  6 18  2  0
  7 15  4  0
  7 16  1  0
  7 27  4  0
  8 18  1  0
 10 18  1  0
 10 20  1  0
 11 15  4  0
 11 26  1  0
 13 22  4  0
 16 19  1  0
 16 20  2  0
 17 19  4  0
 17 21  4  0
 19 22  4  0
 20 28  1  0
 25 27  4  0
M  END
$$$$

 Created by Python create_sdf_string function

 28 30  0  0  0  0  0  0  0  0999 V2000
   11.4592   11.2893   18.7941 C   0  0  0  0  0  0  0  0  0  0  0  0
    3.4202    7.9009   20.3866 C   0  0  0  0  0  0  0  0  0  0  0  0
   13.5280   10.3522   19.3586 C   0  0  0  0  0  0  0  0  0  0  0  0
    9.6923    5.6468   22.7891 C   0  0  0  0  0  0  0  0  0  0  0  0
   11.7756   10.2554   20.8841 N   0  0  0  0  0  0  0  0  0  0  0  0
    8.9876   11.9370   19.8757 O   0  0  0  0  0  0  0  0  0  0  0  0
    6.0167    8.4478   21.1089 C   0  0  0  0  0  0  0  0  0  0  0  0
   11.0002   10.8890   20.0262 C   0  0  0  0  0  0  0  0  0  0  0  0
    2.1721    7.7393   20.0315 O   0  0  0  0  0  0  0  0  0  0  0  0
    9.1107   10.3880   21.3769 N   0  0  0  0  0  0  0  0  0  0  0  0
    3.9102    9.2008   20.3124 C   0  0  0  0  0  0  0  0  0  0  0  0
   12.7292   10.9960   18.4597 C   0  0  0  0  0  0  0  0  0  0  0  0
    9.3798    6.6793   23.6625 C   0  0  0  0  0  0  0  0  0  0  0  0
   14.7425   10.0739   19.0802 O   0  0  0  0  0  0  0  0  0  0  0  0
    5.1894    9.4673   20.7118 C   0  0  0  0  0  0  0  0  0  0  0  0
    7.3773    8.8224   21.4870 C   0  0  0  0  0  0  0  0  0  0  0  0
    8.4391    6.6439   21.0235 C   0  0  0  0  0  0  0  0  0  0  0  0
    9.6494   11.1353   20.4167 C   0  0  0  0  0  0  0  0  0  0  0  0
    8.1431    7.6829   21.9046 C   0  0  0  0  0  0  0  0  0  0  0  0
    7.7796   10.1314   21.5115 N   0  0  0  0  0  0  0  0  0  0  0  0
    9.2768    5.6183   21.4437 C   0  0  0  0  0  0  0  0  0  0  0  0
    8.6315    7.7322   23.1768 C   0  0  0  0  0  0  0  0  0  0  0  0
   13.0537    9.9821   20.5781 C   0  0  0  0  0  0  0  0  0  0  0  0
   10.3850    4.6575   23.2386 O   0  0  0  0  0  0  0  0  0  0  0  0
    4.2069    6.8450   20.7994 C   0  0  0  0  0  0  0  0  0  0  0  0
    3.0726   10.1043   19.8522 O   0  0  0  0  0  0  0  0  0  0  0  0
    5.5057    7.1196   21.1155 C   0  0  0  0  0  0  0  0  0  0  0  0
    7.0367   11.0229   21.9948 O   0  0  0  0  0  0  0  0  0  0  0  0
  1  8  4  0
  1 12  4  0
  2  9  1  0
  2 11  4  0
  2 25  4  0
  3 12  4  0
  3 14  1  0
  3 23  4  0
  4 13  4  0
  4 21  4  0
  4 24  1  0
  5  8  4  0
  5 23  4  0
  6 18  2  0
  7 15  4  0
  7 16  1  0
  7 27  4  0
  8 18  1  0
 10 18  1  0
 10 20  1  0
 11 15  4  0
 11 26  1  0
 13 22  4  0
 16 19  1  0
 16 20  2  0
 17 19  4  0
 17 21  4  0
 19 22  4  0
 20 28  1  0
 25 27  4  0
M  END
$$$$

 Created by Python create_sdf_string function

 28 30  0  0  0  0  0  0  0  0999 V2000
   11.4592   11.2893   18.7941 C   0  0  0  0  0  0  0  0  0  0  0  0
    3.4202    7.9009   20.3866 C   0  0  0  0  0  0  0  0  0  0  0  0
   13.5280   10.3522   19.3586 C   0  0  0  0  0  0  0  0  0  0  0  0
    9.6923    5.6468   22.7891 C   0  0  0  0  0  0  0  0  0  0  0  0
   11.7756   10.2554   20.8841 N   0  0  0  0  0  0  0  0  0  0  0  0
    8.9876   11.9370   19.8757 O   0  0  0  0  0  0  0  0  0  0  0  0
    6.0167    8.4478   21.1089 C   0  0  0  0  0  0  0  0  0  0  0  0
   11.0002   10.8890   20.0262 C   0  0  0  0  0  0  0  0  0  0  0  0
    2.1721    7.7393   20.0315 O   0  0  0  0  0  0  0  0  0  0  0  0
    9.1107   10.3880   21.3769 N   0  0  0  0  0  0  0  0  0  0  0  0
    3.9102    9.2008   20.3124 C   0  0  0  0  0  0  0  0  0  0  0  0
   12.7292   10.9960   18.4597 C   0  0  0  0  0  0  0  0  0  0  0  0
    9.3798    6.6793   23.6625 C   0  0  0  0  0  0  0  0  0  0  0  0
   14.7425   10.0739   19.0802 O   0  0  0  0  0  0  0  0  0  0  0  0
    5.1894    9.4673   20.7118 C   0  0  0  0  0  0  0  0  0  0  0  0
    7.3773    8.8224   21.4870 C   0  0  0  0  0  0  0  0  0  0  0  0
    8.4391    6.6439   21.0235 C   0  0  0  0  0  0  0  0  0  0  0  0
    9.6494   11.1353   20.4167 C   0  0  0  0  0  0  0  0  0  0  0  0
    8.1431    7.6829   21.9046 C   0  0  0  0  0  0  0  0  0  0  0  0
    7.7796   10.1314   21.5115 N   0  0  0  0  0  0  0  0  0  0  0  0
    9.2768    5.6183   21.4437 C   0  0  0  0  0  0  0  0  0  0  0  0
    8.6315    7.7322   23.1768 C   0  0  0  0  0  0  0  0  0  0  0  0
   13.0537    9.9821   20.5781 C   0  0  0  0  0  0  0  0  0  0  0  0
   10.3850    4.6575   23.2386 O   0  0  0  0  0  0  0  0  0  0  0  0
    4.2069    6.8450   20.7994 C   0  0  0  0  0  0  0  0  0  0  0  0
    3.0726   10.1043   19.8522 O   0  0  0  0  0  0  0  0  0  0  0  0
    5.5057    7.1196   21.1155 C   0  0  0  0  0  0  0  0  0  0  0  0
    7.0367   11.0229   21.9948 O   0  0  0  0  0  0  0  0  0  0  0  0
  1  8  4  0
  1 12  4  0
  2  9  1  0
  2 11  4  0
  2 25  4  0
  3 12  4  0
  3 14  1  0
  3 23  4  0
  4 13  4  0
  4 21  4  0
  4 24  1  0
  5  8  4  0
  5 23  4  0
  6 18  2  0
  7 15  4  0
  7 16  1  0
  7 27  4  0
  8 18  1  0
 10 18  1  0
 10 20  1  0
 11 15  4  0
 11 26  1  0
 13 22  4  0
 16 19  1  0
 16 20  2  0
 17 19  4  0
 17 21  4  0
 19 22  4  0
 20 28  1  0
 25 27  4  0
M  END
$$$$

 Created by Python create_sdf_string function

 28 30  0  0  0  0  0  0  0  0999 V2000
   11.4592   11.2893   18.7941 C   0  0  0  0  0  0  0  0  0  0  0  0
    3.4202    7.9009   20.3866 C   0  0  0  0  0  0  0  0  0  0  0  0
   13.5280   10.3522   19.3586 C   0  0  0  0  0  0  0  0  0  0  0  0
    9.6923    5.6468   22.7891 C   0  0  0  0  0  0  0  0  0  0  0  0
   11.7756   10.2554   20.8841 N   0  0  0  0  0  0  0  0  0  0  0  0
    8.9876   11.9370   19.8757 O   0  0  0  0  0  0  0  0  0  0  0  0
    6.0167    8.4478   21.1089 C   0  0  0  0  0  0  0  0  0  0  0  0
   11.0002   10.8890   20.0262 C   0  0  0  0  0  0  0  0  0  0  0  0
    2.1721    7.7393   20.0315 O   0  0  0  0  0  0  0  0  0  0  0  0
    9.1107   10.3880   21.3769 N   0  0  0  0  0  0  0  0  0  0  0  0
    3.9102    9.2008   20.3124 C   0  0  0  0  0  0  0  0  0  0  0  0
   12.7292   10.9960   18.4597 C   0  0  0  0  0  0  0  0  0  0  0  0
    9.3798    6.6793   23.6625 C   0  0  0  0  0  0  0  0  0  0  0  0
   14.7425   10.0739   19.0802 O   0  0  0  0  0  0  0  0  0  0  0  0
    5.1894    9.4673   20.7118 C   0  0  0  0  0  0  0  0  0  0  0  0
    7.3773    8.8224   21.4870 C   0  0  0  0  0  0  0  0  0  0  0  0
    8.4391    6.6439   21.0235 C   0  0  0  0  0  0  0  0  0  0  0  0
    9.6494   11.1353   20.4167 C   0  0  0  0  0  0  0  0  0  0  0  0
    8.1431    7.6829   21.9046 C   0  0  0  0  0  0  0  0  0  0  0  0
    7.7796   10.1314   21.5115 N   0  0  0  0  0  0  0  0  0  0  0  0
    9.2768    5.6183   21.4437 C   0  0  0  0  0  0  0  0  0  0  0  0
    8.6315    7.7322   23.1768 C   0  0  0  0  0  0  0  0  0  0  0  0
   13.0537    9.9821   20.5781 C   0  0  0  0  0  0  0  0  0  0  0  0
   10.3850    4.6575   23.2386 O   0  0  0  0  0  0  0  0  0  0  0  0
    4.2069    6.8450   20.7994 C   0  0  0  0  0  0  0  0  0  0  0  0
    3.0726   10.1043   19.8522 O   0  0  0  0  0  0  0  0  0  0  0  0
    5.5057    7.1196   21.1155 C   0  0  0  0  0  0  0  0  0  0  0  0
    7.0367   11.0229   21.9948 O   0  0  0  0  0  0  0  0  0  0  0  0
  1  8  4  0
  1 12  4  0
  2  9  1  0
  2 11  4  0
  2 25  4  0
  3 12  4  0
  3 14  1  0
  3 23  4  0
  4 13  4  0
  4 21  4  0
  4 24  1  0
  5  8  4  0
  5 23  4  0
  6 18  2  0
  7 15  4  0
  7 16  1  0
  7 27  4  0
  8 18  1  0
 10 18  1  0
 10 20  1  0
 11 15  4  0
 11 26  1  0
 13 22  4  0
 16 19  1  0
 16 20  2  0
 17 19  4  0
 17 21  4  0
 19 22  4  0
 20 28  1  0
 25 27  4  0
M  END
$$$$

 Created by Python create_sdf_string function

 28 30  0  0  0  0  0  0  0  0999 V2000
   11.4592   11.2893   18.7941 C   0  0  0  0  0  0  0  0  0  0  0  0
    3.4202    7.9009   20.3866 C   0  0  0  0  0  0  0  0  0  0  0  0
   13.5280   10.3522   19.3586 C   0  0  0  0  0  0  0  0  0  0  0  0
    9.6923    5.6468   22.7891 C   0  0  0  0  0  0  0  0  0  0  0  0
   11.7756   10.2554   20.8841 N   0  0  0  0  0  0  0  0  0  0  0  0
    8.9876   11.9370   19.8757 O   0  0  0  0  0  0  0  0  0  0  0  0
    6.0167    8.4478   21.1089 C   0  0  0  0  0  0  0  0  0  0  0  0
   11.0002   10.8890   20.0262 C   0  0  0  0  0  0  0  0  0  0  0  0
    2.1721    7.7393   20.0315 O   0  0  0  0  0  0  0  0  0  0  0  0
    9.1107   10.3880   21.3769 N   0  0  0  0  0  0  0  0  0  0  0  0
    3.9102    9.2008   20.3124 C   0  0  0  0  0  0  0  0  0  0  0  0
   12.7292   10.9960   18.4597 C   0  0  0  0  0  0  0  0  0  0  0  0
    9.3798    6.6793   23.6625 C   0  0  0  0  0  0  0  0  0  0  0  0
   14.7425   10.0739   19.0802 O   0  0  0  0  0  0  0  0  0  0  0  0
    5.1894    9.4673   20.7118 C   0  0  0  0  0  0  0  0  0  0  0  0
    7.3773    8.8224   21.4870 C   0  0  0  0  0  0  0  0  0  0  0  0
    8.4391    6.6439   21.0235 C   0  0  0  0  0  0  0  0  0  0  0  0
    9.6494   11.1353   20.4167 C   0  0  0  0  0  0  0  0  0  0  0  0
    8.1431    7.6829   21.9046 C   0  0  0  0  0  0  0  0  0  0  0  0
    7.7796   10.1314   21.5115 N   0  0  0  0  0  0  0  0  0  0  0  0
    9.2768    5.6183   21.4437 C   0  0  0  0  0  0  0  0  0  0  0  0
    8.6315    7.7322   23.1768 C   0  0  0  0  0  0  0  0  0  0  0  0
   13.0537    9.9821   20.5781 C   0  0  0  0  0  0  0  0  0  0  0  0
   10.3850    4.6575   23.2386 O   0  0  0  0  0  0  0  0  0  0  0  0
    4.2069    6.8450   20.7994 C   0  0  0  0  0  0  0  0  0  0  0  0
    3.0726   10.1043   19.8522 O   0  0  0  0  0  0  0  0  0  0  0  0
    5.5057    7.1196   21.1155 C   0  0  0  0  0  0  0  0  0  0  0  0
    7.0367   11.0229   21.9948 O   0  0  0  0  0  0  0  0  0  0  0  0
  1  8  4  0
  1 12  4  0
  2  9  1  0
  2 11  4  0
  2 25  4  0
  3 12  4  0
  3 14  1  0
  3 23  4  0
  4 13  4  0
  4 21  4  0
  4 24  1  0
  5  8  4  0
  5 23  4  0
  6 18  2  0
  7 15  4  0
  7 16  1  0
  7 27  4  0
  8 18  1  0
 10 18  1  0
 10 20  1  0
 11 15  4  0
 11 26  1  0
 13 22  4  0
 16 19  1  0
 16 20  2  0
 17 19  4  0
 17 21  4  0
 19 22  4  0
 20 28  1  0
 25 27  4  0
M  END
$$$$

 Created by Python create_sdf_string function

 28 30  0  0  0  0  0  0  0  0999 V2000
   11.4592   11.2893   18.7941 C   0  0  0  0  0  0  0  0  0  0  0  0
    3.4202    7.9009   20.3866 C   0  0  0  0  0  0  0  0  0  0  0  0
   13.5280   10.3522   19.3586 C   0  0  0  0  0  0  0  0  0  0  0  0
    9.6923    5.6468   22.7891 C   0  0  0  0  0  0  0  0  0  0  0  0
   11.7756   10.2554   20.8841 N   0  0  0  0  0  0  0  0  0  0  0  0
    8.9876   11.9370   19.8757 O   0  0  0  0  0  0  0  0  0  0  0  0
    6.0167    8.4478   21.1089 C   0  0  0  0  0  0  0  0  0  0  0  0
   11.0002   10.8890   20.0262 C   0  0  0  0  0  0  0  0  0  0  0  0
    2.1721    7.7393   20.0315 O   0  0  0  0  0  0  0  0  0  0  0  0
    9.1107   10.3880   21.3769 N   0  0  0  0  0  0  0  0  0  0  0  0
    3.9102    9.2008   20.3124 C   0  0  0  0  0  0  0  0  0  0  0  0
   12.7292   10.9960   18.4597 C   0  0  0  0  0  0  0  0  0  0  0  0
    9.3798    6.6793   23.6625 C   0  0  0  0  0  0  0  0  0  0  0  0
   14.7425   10.0739   19.0802 O   0  0  0  0  0  0  0  0  0  0  0  0
    5.1894    9.4673   20.7118 C   0  0  0  0  0  0  0  0  0  0  0  0
    7.3773    8.8224   21.4870 C   0  0  0  0  0  0  0  0  0  0  0  0
    8.4391    6.6439   21.0235 C   0  0  0  0  0  0  0  0  0  0  0  0
    9.6494   11.1353   20.4167 C   0  0  0  0  0  0  0  0  0  0  0  0
    8.1431    7.6829   21.9046 C   0  0  0  0  0  0  0  0  0  0  0  0
    7.7796   10.1314   21.5115 N   0  0  0  0  0  0  0  0  0  0  0  0
    9.2768    5.6183   21.4437 C   0  0  0  0  0  0  0  0  0  0  0  0
    8.6315    7.7322   23.1768 C   0  0  0  0  0  0  0  0  0  0  0  0
   13.0537    9.9821   20.5781 C   0  0  0  0  0  0  0  0  0  0  0  0
   10.3850    4.6575   23.2386 O   0  0  0  0  0  0  0  0  0  0  0  0
    4.2069    6.8450   20.7994 C   0  0  0  0  0  0  0  0  0  0  0  0
    3.0726   10.1043   19.8522 O   0  0  0  0  0  0  0  0  0  0  0  0
    5.5057    7.1196   21.1155 C   0  0  0  0  0  0  0  0  0  0  0  0
    7.0367   11.0229   21.9948 O   0  0  0  0  0  0  0  0  0  0  0  0
  1  8  4  0
  1 12  4  0
  2  9  1  0
  2 11  4  0
  2 25  4  0
  3 12  4  0
  3 14  1  0
  3 23  4  0
  4 13  4  0
  4 21  4  0
  4 24  1  0
  5  8  4  0
  5 23  4  0
  6 18  2  0
  7 15  4  0
  7 16  1  0
  7 27  4  0
  8 18  1  0
 10 18  1  0
 10 20  1  0
 11 15  4  0
 11 26  1  0
 13 22  4  0
 16 19  1  0
 16 20  2  0
 17 19  4  0
 17 21  4  0
 19 22  4  0
 20 28  1  0
 25 27  4  0
M  END
$$$$

 Created by Python create_sdf_string function

 28 30  0  0  0  0  0  0  0  0999 V2000
   11.4592   11.2893   18.7941 C   0  0  0  0  0  0  0  0  0  0  0  0
    3.4202    7.9009   20.3866 C   0  0  0  0  0  0  0  0  0  0  0  0
   13.5280   10.3522   19.3586 C   0  0  0  0  0  0  0  0  0  0  0  0
    9.6923    5.6468   22.7891 C   0  0  0  0  0  0  0  0  0  0  0  0
   11.7756   10.2554   20.8841 N   0  0  0  0  0  0  0  0  0  0  0  0
    8.9876   11.9370   19.8757 O   0  0  0  0  0  0  0  0  0  0  0  0
    6.0167    8.4478   21.1089 C   0  0  0  0  0  0  0  0  0  0  0  0
   11.0002   10.8890   20.0262 C   0  0  0  0  0  0  0  0  0  0  0  0
    2.1721    7.7393   20.0315 O   0  0  0  0  0  0  0  0  0  0  0  0
    9.1107   10.3880   21.3769 N   0  0  0  0  0  0  0  0  0  0  0  0
    3.9102    9.2008   20.3124 C   0  0  0  0  0  0  0  0  0  0  0  0
   12.7292   10.9960   18.4597 C   0  0  0  0  0  0  0  0  0  0  0  0
    9.3798    6.6793   23.6625 C   0  0  0  0  0  0  0  0  0  0  0  0
   14.7425   10.0739   19.0802 O   0  0  0  0  0  0  0  0  0  0  0  0
    5.1894    9.4673   20.7118 C   0  0  0  0  0  0  0  0  0  0  0  0
    7.3773    8.8224   21.4870 C   0  0  0  0  0  0  0  0  0  0  0  0
    8.4391    6.6439   21.0235 C   0  0  0  0  0  0  0  0  0  0  0  0
    9.6494   11.1353   20.4167 C   0  0  0  0  0  0  0  0  0  0  0  0
    8.1431    7.6829   21.9046 C   0  0  0  0  0  0  0  0  0  0  0  0
    7.7796   10.1314   21.5115 N   0  0  0  0  0  0  0  0  0  0  0  0
    9.2768    5.6183   21.4437 C   0  0  0  0  0  0  0  0  0  0  0  0
    8.6315    7.7322   23.1768 C   0  0  0  0  0  0  0  0  0  0  0  0
   13.0537    9.9821   20.5781 C   0  0  0  0  0  0  0  0  0  0  0  0
   10.3850    4.6575   23.2386 O   0  0  0  0  0  0  0  0  0  0  0  0
    4.2069    6.8450   20.7994 C   0  0  0  0  0  0  0  0  0  0  0  0
    3.0726   10.1043   19.8522 O   0  0  0  0  0  0  0  0  0  0  0  0
    5.5057    7.1196   21.1155 C   0  0  0  0  0  0  0  0  0  0  0  0
    7.0367   11.0229   21.9948 O   0  0  0  0  0  0  0  0  0  0  0  0
  1  8  4  0
  1 12  4  0
  2  9  1  0
  2 11  4  0
  2 25  4  0
  3 12  4  0
  3 14  1  0
  3 23  4  0
  4 13  4  0
  4 21  4  0
  4 24  1  0
  5  8  4  0
  5 23  4  0
  6 18  2  0
  7 15  4  0
  7 16  1  0
  7 27  4  0
  8 18  1  0
 10 18  1  0
 10 20  1  0
 11 15  4  0
 11 26  1  0
 13 22  4  0
 16 19  1  0
 16 20  2  0
 17 19  4  0
 17 21  4  0
 19 22  4  0
 20 28  1  0
 25 27  4  0
M  END
$$$$

 Created by Python create_sdf_string function

 28 30  0  0  0  0  0  0  0  0999 V2000
   11.4592   11.2893   18.7941 C   0  0  0  0  0  0  0  0  0  0  0  0
    3.4202    7.9009   20.3866 C   0  0  0  0  0  0  0  0  0  0  0  0
   13.5280   10.3522   19.3586 C   0  0  0  0  0  0  0  0  0  0  0  0
    9.6923    5.6468   22.7891 C   0  0  0  0  0  0  0  0  0  0  0  0
   11.7756   10.2554   20.8841 N   0  0  0  0  0  0  0  0  0  0  0  0
    8.9876   11.9370   19.8757 O   0  0  0  0  0  0  0  0  0  0  0  0
    6.0167    8.4478   21.1089 C   0  0  0  0  0  0  0  0  0  0  0  0
   11.0002   10.8890   20.0262 C   0  0  0  0  0  0  0  0  0  0  0  0
    2.1721    7.7393   20.0315 O   0  0  0  0  0  0  0  0  0  0  0  0
    9.1107   10.3880   21.3769 N   0  0  0  0  0  0  0  0  0  0  0  0
    3.9102    9.2008   20.3124 C   0  0  0  0  0  0  0  0  0  0  0  0
   12.7292   10.9960   18.4597 C   0  0  0  0  0  0  0  0  0  0  0  0
    9.3798    6.6793   23.6625 C   0  0  0  0  0  0  0  0  0  0  0  0
   14.7425   10.0739   19.0802 O   0  0  0  0  0  0  0  0  0  0  0  0
    5.1894    9.4673   20.7118 C   0  0  0  0  0  0  0  0  0  0  0  0
    7.3773    8.8224   21.4870 C   0  0  0  0  0  0  0  0  0  0  0  0
    8.4391    6.6439   21.0235 C   0  0  0  0  0  0  0  0  0  0  0  0
    9.6494   11.1353   20.4167 C   0  0  0  0  0  0  0  0  0  0  0  0
    8.1431    7.6829   21.9046 C   0  0  0  0  0  0  0  0  0  0  0  0
    7.7796   10.1314   21.5115 N   0  0  0  0  0  0  0  0  0  0  0  0
    9.2768    5.6183   21.4437 C   0  0  0  0  0  0  0  0  0  0  0  0
    8.6315    7.7322   23.1768 C   0  0  0  0  0  0  0  0  0  0  0  0
   13.0537    9.9821   20.5781 C   0  0  0  0  0  0  0  0  0  0  0  0
   10.3850    4.6575   23.2386 O   0  0  0  0  0  0  0  0  0  0  0  0
    4.2069    6.8450   20.7994 C   0  0  0  0  0  0  0  0  0  0  0  0
    3.0726   10.1043   19.8522 O   0  0  0  0  0  0  0  0  0  0  0  0
    5.5057    7.1196   21.1155 C   0  0  0  0  0  0  0  0  0  0  0  0
    7.0367   11.0229   21.9948 O   0  0  0  0  0  0  0  0  0  0  0  0
  1  8  4  0
  1 12  4  0
  2  9  1  0
  2 11  4  0
  2 25  4  0
  3 12  4  0
  3 14  1  0
  3 23  4  0
  4 13  4  0
  4 21  4  0
  4 24  1  0
  5  8  4  0
  5 23  4  0
  6 18  2  0
  7 15  4  0
  7 16  1  0
  7 27  4  0
  8 18  1  0
 10 18  1  0
 10 20  1  0
 11 15  4  0
 11 26  1  0
 13 22  4  0
 16 19  1  0
 16 20  2  0
 17 19  4  0
 17 21  4  0
 19 22  4  0
 20 28  1  0
 25 27  4  0
M  END
$$$$

 Created by Python create_sdf_string function

 28 30  0  0  0  0  0  0  0  0999 V2000
   11.4592   11.2893   18.7941 C   0  0  0  0  0  0  0  0  0  0  0  0
    3.4202    7.9009   20.3866 C   0  0  0  0  0  0  0  0  0  0  0  0
   13.5280   10.3522   19.3586 C   0  0  0  0  0  0  0  0  0  0  0  0
    9.6923    5.6468   22.7891 C   0  0  0  0  0  0  0  0  0  0  0  0
   11.7756   10.2554   20.8841 N   0  0  0  0  0  0  0  0  0  0  0  0
    8.9876   11.9370   19.8757 O   0  0  0  0  0  0  0  0  0  0  0  0
    6.0167    8.4478   21.1089 C   0  0  0  0  0  0  0  0  0  0  0  0
   11.0002   10.8890   20.0262 C   0  0  0  0  0  0  0  0  0  0  0  0
    2.1721    7.7393   20.0315 O   0  0  0  0  0  0  0  0  0  0  0  0
    9.1107   10.3880   21.3769 N   0  0  0  0  0  0  0  0  0  0  0  0
    3.9102    9.2008   20.3124 C   0  0  0  0  0  0  0  0  0  0  0  0
   12.7292   10.9960   18.4597 C   0  0  0  0  0  0  0  0  0  0  0  0
    9.3798    6.6793   23.6625 C   0  0  0  0  0  0  0  0  0  0  0  0
   14.7425   10.0739   19.0802 O   0  0  0  0  0  0  0  0  0  0  0  0
    5.1894    9.4673   20.7118 C   0  0  0  0  0  0  0  0  0  0  0  0
    7.3773    8.8224   21.4870 C   0  0  0  0  0  0  0  0  0  0  0  0
    8.4391    6.6439   21.0235 C   0  0  0  0  0  0  0  0  0  0  0  0
    9.6494   11.1353   20.4167 C   0  0  0  0  0  0  0  0  0  0  0  0
    8.1431    7.6829   21.9046 C   0  0  0  0  0  0  0  0  0  0  0  0
    7.7796   10.1314   21.5115 N   0  0  0  0  0  0  0  0  0  0  0  0
    9.2768    5.6183   21.4437 C   0  0  0  0  0  0  0  0  0  0  0  0
    8.6315    7.7322   23.1768 C   0  0  0  0  0  0  0  0  0  0  0  0
   13.0537    9.9821   20.5781 C   0  0  0  0  0  0  0  0  0  0  0  0
   10.3850    4.6575   23.2386 O   0  0  0  0  0  0  0  0  0  0  0  0
    4.2069    6.8450   20.7994 C   0  0  0  0  0  0  0  0  0  0  0  0
    3.0726   10.1043   19.8522 O   0  0  0  0  0  0  0  0  0  0  0  0
    5.5057    7.1196   21.1155 C   0  0  0  0  0  0  0  0  0  0  0  0
    7.0367   11.0229   21.9948 O   0  0  0  0  0  0  0  0  0  0  0  0
  1  8  4  0
  1 12  4  0
  2  9  1  0
  2 11  4  0
  2 25  4  0
  3 12  4  0
  3 14  1  0
  3 23  4  0
  4 13  4  0
  4 21  4  0
  4 24  1  0
  5  8  4  0
  5 23  4  0
  6 18  2  0
  7 15  4  0
  7 16  1  0
  7 27  4  0
  8 18  1  0
 10 18  1  0
 10 20  1  0
 11 15  4  0
 11 26  1  0
 13 22  4  0
 16 19  1  0
 16 20  2  0
 17 19  4  0
 17 21  4  0
 19 22  4  0
 20 28  1  0
 25 27  4  0
M  END
$$$$

 Created by Python create_sdf_string function

 28 30  0  0  0  0  0  0  0  0999 V2000
   11.4592   11.2893   18.7941 C   0  0  0  0  0  0  0  0  0  0  0  0
    3.4202    7.9009   20.3866 C   0  0  0  0  0  0  0  0  0  0  0  0
   13.5280   10.3522   19.3586 C   0  0  0  0  0  0  0  0  0  0  0  0
    9.6923    5.6468   22.7891 C   0  0  0  0  0  0  0  0  0  0  0  0
   11.7756   10.2554   20.8841 N   0  0  0  0  0  0  0  0  0  0  0  0
    8.9876   11.9370   19.8757 O   0  0  0  0  0  0  0  0  0  0  0  0
    6.0167    8.4478   21.1089 C   0  0  0  0  0  0  0  0  0  0  0  0
   11.0002   10.8890   20.0262 C   0  0  0  0  0  0  0  0  0  0  0  0
    2.1721    7.7393   20.0315 O   0  0  0  0  0  0  0  0  0  0  0  0
    9.1107   10.3880   21.3769 N   0  0  0  0  0  0  0  0  0  0  0  0
    3.9102    9.2008   20.3124 C   0  0  0  0  0  0  0  0  0  0  0  0
   12.7292   10.9960   18.4597 C   0  0  0  0  0  0  0  0  0  0  0  0
    9.3798    6.6793   23.6625 C   0  0  0  0  0  0  0  0  0  0  0  0
   14.7425   10.0739   19.0802 O   0  0  0  0  0  0  0  0  0  0  0  0
    5.1894    9.4673   20.7118 C   0  0  0  0  0  0  0  0  0  0  0  0
    7.3773    8.8224   21.4870 C   0  0  0  0  0  0  0  0  0  0  0  0
    8.4391    6.6439   21.0235 C   0  0  0  0  0  0  0  0  0  0  0  0
    9.6494   11.1353   20.4167 C   0  0  0  0  0  0  0  0  0  0  0  0
    8.1431    7.6829   21.9046 C   0  0  0  0  0  0  0  0  0  0  0  0
    7.7796   10.1314   21.5115 N   0  0  0  0  0  0  0  0  0  0  0  0
    9.2768    5.6183   21.4437 C   0  0  0  0  0  0  0  0  0  0  0  0
    8.6315    7.7322   23.1768 C   0  0  0  0  0  0  0  0  0  0  0  0
   13.0537    9.9821   20.5781 C   0  0  0  0  0  0  0  0  0  0  0  0
   10.3850    4.6575   23.2386 O   0  0  0  0  0  0  0  0  0  0  0  0
    4.2069    6.8450   20.7994 C   0  0  0  0  0  0  0  0  0  0  0  0
    3.0726   10.1043   19.8522 O   0  0  0  0  0  0  0  0  0  0  0  0
    5.5057    7.1196   21.1155 C   0  0  0  0  0  0  0  0  0  0  0  0
    7.0367   11.0229   21.9948 O   0  0  0  0  0  0  0  0  0  0  0  0
  1  8  4  0
  1 12  4  0
  2  9  1  0
  2 11  4  0
  2 25  4  0
  3 12  4  0
  3 14  1  0
  3 23  4  0
  4 13  4  0
  4 21  4  0
  4 24  1  0
  5  8  4  0
  5 23  4  0
  6 18  2  0
  7 15  4  0
  7 16  1  0
  7 27  4  0
  8 18  1  0
 10 18  1  0
 10 20  1  0
 11 15  4  0
 11 26  1  0
 13 22  4  0
 16 19  1  0
 16 20  2  0
 17 19  4  0
 17 21  4  0
 19 22  4  0
 20 28  1  0
 25 27  4  0
M  END
$$$$

 Created by Python create_sdf_string function

 28 30  0  0  0  0  0  0  0  0999 V2000
   11.4592   11.2893   18.7941 C   0  0  0  0  0  0  0  0  0  0  0  0
    3.4202    7.9009   20.3866 C   0  0  0  0  0  0  0  0  0  0  0  0
   13.5280   10.3522   19.3586 C   0  0  0  0  0  0  0  0  0  0  0  0
    9.6923    5.6468   22.7891 C   0  0  0  0  0  0  0  0  0  0  0  0
   11.7756   10.2554   20.8841 N   0  0  0  0  0  0  0  0  0  0  0  0
    8.9876   11.9370   19.8757 O   0  0  0  0  0  0  0  0  0  0  0  0
    6.0167    8.4478   21.1089 C   0  0  0  0  0  0  0  0  0  0  0  0
   11.0002   10.8890   20.0262 C   0  0  0  0  0  0  0  0  0  0  0  0
    2.1721    7.7393   20.0315 O   0  0  0  0  0  0  0  0  0  0  0  0
    9.1107   10.3880   21.3769 N   0  0  0  0  0  0  0  0  0  0  0  0
    3.9102    9.2008   20.3124 C   0  0  0  0  0  0  0  0  0  0  0  0
   12.7292   10.9960   18.4597 C   0  0  0  0  0  0  0  0  0  0  0  0
    9.3798    6.6793   23.6625 C   0  0  0  0  0  0  0  0  0  0  0  0
   14.7425   10.0739   19.0802 O   0  0  0  0  0  0  0  0  0  0  0  0
    5.1894    9.4673   20.7118 C   0  0  0  0  0  0  0  0  0  0  0  0
    7.3773    8.8224   21.4870 C   0  0  0  0  0  0  0  0  0  0  0  0
    8.4391    6.6439   21.0235 C   0  0  0  0  0  0  0  0  0  0  0  0
    9.6494   11.1353   20.4167 C   0  0  0  0  0  0  0  0  0  0  0  0
    8.1431    7.6829   21.9046 C   0  0  0  0  0  0  0  0  0  0  0  0
    7.7796   10.1314   21.5115 N   0  0  0  0  0  0  0  0  0  0  0  0
    9.2768    5.6183   21.4437 C   0  0  0  0  0  0  0  0  0  0  0  0
    8.6315    7.7322   23.1768 C   0  0  0  0  0  0  0  0  0  0  0  0
   13.0537    9.9821   20.5781 C   0  0  0  0  0  0  0  0  0  0  0  0
   10.3850    4.6575   23.2386 O   0  0  0  0  0  0  0  0  0  0  0  0
    4.2069    6.8450   20.7994 C   0  0  0  0  0  0  0  0  0  0  0  0
    3.0726   10.1043   19.8522 O   0  0  0  0  0  0  0  0  0  0  0  0
    5.5057    7.1196   21.1155 C   0  0  0  0  0  0  0  0  0  0  0  0
    7.0367   11.0229   21.9948 O   0  0  0  0  0  0  0  0  0  0  0  0
  1  8  4  0
  1 12  4  0
  2  9  1  0
  2 11  4  0
  2 25  4  0
  3 12  4  0
  3 14  1  0
  3 23  4  0
  4 13  4  0
  4 21  4  0
  4 24  1  0
  5  8  4  0
  5 23  4  0
  6 18  2  0
  7 15  4  0
  7 16  1  0
  7 27  4  0
  8 18  1  0
 10 18  1  0
 10 20  1  0
 11 15  4  0
 11 26  1  0
 13 22  4  0
 16 19  1  0
 16 20  2  0
 17 19  4  0
 17 21  4  0
 19 22  4  0
 20 28  1  0
 25 27  4  0
M  END
$$$$

 Created by Python create_sdf_string function

 28 30  0  0  0  0  0  0  0  0999 V2000
   11.4592   11.2893   18.7941 C   0  0  0  0  0  0  0  0  0  0  0  0
    3.4202    7.9009   20.3866 C   0  0  0  0  0  0  0  0  0  0  0  0
   13.5280   10.3522   19.3586 C   0  0  0  0  0  0  0  0  0  0  0  0
    9.6923    5.6468   22.7891 C   0  0  0  0  0  0  0  0  0  0  0  0
   11.7756   10.2554   20.8841 N   0  0  0  0  0  0  0  0  0  0  0  0
    8.9876   11.9370   19.8757 O   0  0  0  0  0  0  0  0  0  0  0  0
    6.0167    8.4478   21.1089 C   0  0  0  0  0  0  0  0  0  0  0  0
   11.0002   10.8890   20.0262 C   0  0  0  0  0  0  0  0  0  0  0  0
    2.1721    7.7393   20.0315 O   0  0  0  0  0  0  0  0  0  0  0  0
    9.1107   10.3880   21.3769 N   0  0  0  0  0  0  0  0  0  0  0  0
    3.9102    9.2008   20.3124 C   0  0  0  0  0  0  0  0  0  0  0  0
   12.7292   10.9960   18.4597 C   0  0  0  0  0  0  0  0  0  0  0  0
    9.3798    6.6793   23.6625 C   0  0  0  0  0  0  0  0  0  0  0  0
   14.7425   10.0739   19.0802 O   0  0  0  0  0  0  0  0  0  0  0  0
    5.1894    9.4673   20.7118 C   0  0  0  0  0  0  0  0  0  0  0  0
    7.3773    8.8224   21.4870 C   0  0  0  0  0  0  0  0  0  0  0  0
    8.4391    6.6439   21.0235 C   0  0  0  0  0  0  0  0  0  0  0  0
    9.6494   11.1353   20.4167 C   0  0  0  0  0  0  0  0  0  0  0  0
    8.1431    7.6829   21.9046 C   0  0  0  0  0  0  0  0  0  0  0  0
    7.7796   10.1314   21.5115 N   0  0  0  0  0  0  0  0  0  0  0  0
    9.2768    5.6183   21.4437 C   0  0  0  0  0  0  0  0  0  0  0  0
    8.6315    7.7322   23.1768 C   0  0  0  0  0  0  0  0  0  0  0  0
   13.0537    9.9821   20.5781 C   0  0  0  0  0  0  0  0  0  0  0  0
   10.3850    4.6575   23.2386 O   0  0  0  0  0  0  0  0  0  0  0  0
    4.2069    6.8450   20.7994 C   0  0  0  0  0  0  0  0  0  0  0  0
    3.0726   10.1043   19.8522 O   0  0  0  0  0  0  0  0  0  0  0  0
    5.5057    7.1196   21.1155 C   0  0  0  0  0  0  0  0  0  0  0  0
    7.0367   11.0229   21.9948 O   0  0  0  0  0  0  0  0  0  0  0  0
  1  8  4  0
  1 12  4  0
  2  9  1  0
  2 11  4  0
  2 25  4  0
  3 12  4  0
  3 14  1  0
  3 23  4  0
  4 13  4  0
  4 21  4  0
  4 24  1  0
  5  8  4  0
  5 23  4  0
  6 18  2  0
  7 15  4  0
  7 16  1  0
  7 27  4  0
  8 18  1  0
 10 18  1  0
 10 20  1  0
 11 15  4  0
 11 26  1  0
 13 22  4  0
 16 19  1  0
 16 20  2  0
 17 19  4  0
 17 21  4  0
 19 22  4  0
 20 28  1  0
 25 27  4  0
M  END
$$$$

 Created by Python create_sdf_string function

 28 30  0  0  0  0  0  0  0  0999 V2000
   11.4592   11.2893   18.7941 C   0  0  0  0  0  0  0  0  0  0  0  0
    3.4202    7.9009   20.3866 C   0  0  0  0  0  0  0  0  0  0  0  0
   13.5280   10.3522   19.3586 C   0  0  0  0  0  0  0  0  0  0  0  0
    9.6923    5.6468   22.7891 C   0  0  0  0  0  0  0  0  0  0  0  0
   11.7756   10.2554   20.8841 N   0  0  0  0  0  0  0  0  0  0  0  0
    8.9876   11.9370   19.8757 O   0  0  0  0  0  0  0  0  0  0  0  0
    6.0167    8.4478   21.1089 C   0  0  0  0  0  0  0  0  0  0  0  0
   11.0002   10.8890   20.0262 C   0  0  0  0  0  0  0  0  0  0  0  0
    2.1721    7.7393   20.0315 O   0  0  0  0  0  0  0  0  0  0  0  0
    9.1107   10.3880   21.3769 N   0  0  0  0  0  0  0  0  0  0  0  0
    3.9102    9.2008   20.3124 C   0  0  0  0  0  0  0  0  0  0  0  0
   12.7292   10.9960   18.4597 C   0  0  0  0  0  0  0  0  0  0  0  0
    9.3798    6.6793   23.6625 C   0  0  0  0  0  0  0  0  0  0  0  0
   14.7425   10.0739   19.0802 O   0  0  0  0  0  0  0  0  0  0  0  0
    5.1894    9.4673   20.7118 C   0  0  0  0  0  0  0  0  0  0  0  0
    7.3773    8.8224   21.4870 C   0  0  0  0  0  0  0  0  0  0  0  0
    8.4391    6.6439   21.0235 C   0  0  0  0  0  0  0  0  0  0  0  0
    9.6494   11.1353   20.4167 C   0  0  0  0  0  0  0  0  0  0  0  0
    8.1431    7.6829   21.9046 C   0  0  0  0  0  0  0  0  0  0  0  0
    7.7796   10.1314   21.5115 N   0  0  0  0  0  0  0  0  0  0  0  0
    9.2768    5.6183   21.4437 C   0  0  0  0  0  0  0  0  0  0  0  0
    8.6315    7.7322   23.1768 C   0  0  0  0  0  0  0  0  0  0  0  0
   13.0537    9.9821   20.5781 C   0  0  0  0  0  0  0  0  0  0  0  0
   10.3850    4.6575   23.2386 O   0  0  0  0  0  0  0  0  0  0  0  0
    4.2069    6.8450   20.7994 C   0  0  0  0  0  0  0  0  0  0  0  0
    3.0726   10.1043   19.8522 O   0  0  0  0  0  0  0  0  0  0  0  0
    5.5057    7.1196   21.1155 C   0  0  0  0  0  0  0  0  0  0  0  0
    7.0367   11.0229   21.9948 O   0  0  0  0  0  0  0  0  0  0  0  0
  1  8  4  0
  1 12  4  0
  2  9  1  0
  2 11  4  0
  2 25  4  0
  3 12  4  0
  3 14  1  0
  3 23  4  0
  4 13  4  0
  4 21  4  0
  4 24  1  0
  5  8  4  0
  5 23  4  0
  6 18  2  0
  7 15  4  0
  7 16  1  0
  7 27  4  0
  8 18  1  0
 10 18  1  0
 10 20  1  0
 11 15  4  0
 11 26  1  0
 13 22  4  0
 16 19  1  0
 16 20  2  0
 17 19  4  0
 17 21  4  0
 19 22  4  0
 20 28  1  0
 25 27  4  0
M  END
$$$$

 Created by Python create_sdf_string function

 28 30  0  0  0  0  0  0  0  0999 V2000
   11.4592   11.2893   18.7941 C   0  0  0  0  0  0  0  0  0  0  0  0
    3.4202    7.9009   20.3866 C   0  0  0  0  0  0  0  0  0  0  0  0
   13.5280   10.3522   19.3586 C   0  0  0  0  0  0  0  0  0  0  0  0
    9.6923    5.6468   22.7891 C   0  0  0  0  0  0  0  0  0  0  0  0
   11.7756   10.2554   20.8841 N   0  0  0  0  0  0  0  0  0  0  0  0
    8.9876   11.9370   19.8757 O   0  0  0  0  0  0  0  0  0  0  0  0
    6.0167    8.4478   21.1089 C   0  0  0  0  0  0  0  0  0  0  0  0
   11.0002   10.8890   20.0262 C   0  0  0  0  0  0  0  0  0  0  0  0
    2.1721    7.7393   20.0315 O   0  0  0  0  0  0  0  0  0  0  0  0
    9.1107   10.3880   21.3769 N   0  0  0  0  0  0  0  0  0  0  0  0
    3.9102    9.2008   20.3124 C   0  0  0  0  0  0  0  0  0  0  0  0
   12.7292   10.9960   18.4597 C   0  0  0  0  0  0  0  0  0  0  0  0
    9.3798    6.6793   23.6625 C   0  0  0  0  0  0  0  0  0  0  0  0
   14.7425   10.0739   19.0802 O   0  0  0  0  0  0  0  0  0  0  0  0
    5.1894    9.4673   20.7118 C   0  0  0  0  0  0  0  0  0  0  0  0
    7.3773    8.8224   21.4870 C   0  0  0  0  0  0  0  0  0  0  0  0
    8.4391    6.6439   21.0235 C   0  0  0  0  0  0  0  0  0  0  0  0
    9.6494   11.1353   20.4167 C   0  0  0  0  0  0  0  0  0  0  0  0
    8.1431    7.6829   21.9046 C   0  0  0  0  0  0  0  0  0  0  0  0
    7.7796   10.1314   21.5115 N   0  0  0  0  0  0  0  0  0  0  0  0
    9.2768    5.6183   21.4437 C   0  0  0  0  0  0  0  0  0  0  0  0
    8.6315    7.7322   23.1768 C   0  0  0  0  0  0  0  0  0  0  0  0
   13.0537    9.9821   20.5781 C   0  0  0  0  0  0  0  0  0  0  0  0
   10.3850    4.6575   23.2386 O   0  0  0  0  0  0  0  0  0  0  0  0
    4.2069    6.8450   20.7994 C   0  0  0  0  0  0  0  0  0  0  0  0
    3.0726   10.1043   19.8522 O   0  0  0  0  0  0  0  0  0  0  0  0
    5.5057    7.1196   21.1155 C   0  0  0  0  0  0  0  0  0  0  0  0
    7.0367   11.0229   21.9948 O   0  0  0  0  0  0  0  0  0  0  0  0
  1  8  4  0
  1 12  4  0
  2  9  1  0
  2 11  4  0
  2 25  4  0
  3 12  4  0
  3 14  1  0
  3 23  4  0
  4 13  4  0
  4 21  4  0
  4 24  1  0
  5  8  4  0
  5 23  4  0
  6 18  2  0
  7 15  4  0
  7 16  1  0
  7 27  4  0
  8 18  1  0
 10 18  1  0
 10 20  1  0
 11 15  4  0
 11 26  1  0
 13 22  4  0
 16 19  1  0
 16 20  2  0
 17 19  4  0
 17 21  4  0
 19 22  4  0
 20 28  1  0
 25 27  4  0
M  END
$$$$

 Created by Python create_sdf_string function

 28 30  0  0  0  0  0  0  0  0999 V2000
   11.4592   11.2893   18.7941 C   0  0  0  0  0  0  0  0  0  0  0  0
    3.4202    7.9009   20.3866 C   0  0  0  0  0  0  0  0  0  0  0  0
   13.5280   10.3522   19.3586 C   0  0  0  0  0  0  0  0  0  0  0  0
    9.6923    5.6468   22.7891 C   0  0  0  0  0  0  0  0  0  0  0  0
   11.7756   10.2554   20.8841 N   0  0  0  0  0  0  0  0  0  0  0  0
    8.9876   11.9370   19.8757 O   0  0  0  0  0  0  0  0  0  0  0  0
    6.0167    8.4478   21.1089 C   0  0  0  0  0  0  0  0  0  0  0  0
   11.0002   10.8890   20.0262 C   0  0  0  0  0  0  0  0  0  0  0  0
    2.1721    7.7393   20.0315 O   0  0  0  0  0  0  0  0  0  0  0  0
    9.1107   10.3880   21.3769 N   0  0  0  0  0  0  0  0  0  0  0  0
    3.9102    9.2008   20.3124 C   0  0  0  0  0  0  0  0  0  0  0  0
   12.7292   10.9960   18.4597 C   0  0  0  0  0  0  0  0  0  0  0  0
    9.3798    6.6793   23.6625 C   0  0  0  0  0  0  0  0  0  0  0  0
   14.7425   10.0739   19.0802 O   0  0  0  0  0  0  0  0  0  0  0  0
    5.1894    9.4673   20.7118 C   0  0  0  0  0  0  0  0  0  0  0  0
    7.3773    8.8224   21.4870 C   0  0  0  0  0  0  0  0  0  0  0  0
    8.4391    6.6439   21.0235 C   0  0  0  0  0  0  0  0  0  0  0  0
    9.6494   11.1353   20.4167 C   0  0  0  0  0  0  0  0  0  0  0  0
    8.1431    7.6829   21.9046 C   0  0  0  0  0  0  0  0  0  0  0  0
    7.7796   10.1314   21.5115 N   0  0  0  0  0  0  0  0  0  0  0  0
    9.2768    5.6183   21.4437 C   0  0  0  0  0  0  0  0  0  0  0  0
    8.6315    7.7322   23.1768 C   0  0  0  0  0  0  0  0  0  0  0  0
   13.0537    9.9821   20.5781 C   0  0  0  0  0  0  0  0  0  0  0  0
   10.3850    4.6575   23.2386 O   0  0  0  0  0  0  0  0  0  0  0  0
    4.2069    6.8450   20.7994 C   0  0  0  0  0  0  0  0  0  0  0  0
    3.0726   10.1043   19.8522 O   0  0  0  0  0  0  0  0  0  0  0  0
    5.5057    7.1196   21.1155 C   0  0  0  0  0  0  0  0  0  0  0  0
    7.0367   11.0229   21.9948 O   0  0  0  0  0  0  0  0  0  0  0  0
  1  8  4  0
  1 12  4  0
  2  9  1  0
  2 11  4  0
  2 25  4  0
  3 12  4  0
  3 14  1  0
  3 23  4  0
  4 13  4  0
  4 21  4  0
  4 24  1  0
  5  8  4  0
  5 23  4  0
  6 18  2  0
  7 15  4  0
  7 16  1  0
  7 27  4  0
  8 18  1  0
 10 18  1  0
 10 20  1  0
 11 15  4  0
 11 26  1  0
 13 22  4  0
 16 19  1  0
 16 20  2  0
 17 19  4  0
 17 21  4  0
 19 22  4  0
 20 28  1  0
 25 27  4  0
M  END
$$$$

 Created by Python create_sdf_string function

 28 30  0  0  0  0  0  0  0  0999 V2000
   11.4592   11.2893   18.7941 C   0  0  0  0  0  0  0  0  0  0  0  0
    3.4202    7.9009   20.3866 C   0  0  0  0  0  0  0  0  0  0  0  0
   13.5280   10.3522   19.3586 C   0  0  0  0  0  0  0  0  0  0  0  0
    9.6923    5.6468   22.7891 C   0  0  0  0  0  0  0  0  0  0  0  0
   11.7756   10.2554   20.8841 N   0  0  0  0  0  0  0  0  0  0  0  0
    8.9876   11.9370   19.8757 O   0  0  0  0  0  0  0  0  0  0  0  0
    6.0167    8.4478   21.1089 C   0  0  0  0  0  0  0  0  0  0  0  0
   11.0002   10.8890   20.0262 C   0  0  0  0  0  0  0  0  0  0  0  0
    2.1721    7.7393   20.0315 O   0  0  0  0  0  0  0  0  0  0  0  0
    9.1107   10.3880   21.3769 N   0  0  0  0  0  0  0  0  0  0  0  0
    3.9102    9.2008   20.3124 C   0  0  0  0  0  0  0  0  0  0  0  0
   12.7292   10.9960   18.4597 C   0  0  0  0  0  0  0  0  0  0  0  0
    9.3798    6.6793   23.6625 C   0  0  0  0  0  0  0  0  0  0  0  0
   14.7425   10.0739   19.0802 O   0  0  0  0  0  0  0  0  0  0  0  0
    5.1894    9.4673   20.7118 C   0  0  0  0  0  0  0  0  0  0  0  0
    7.3773    8.8224   21.4870 C   0  0  0  0  0  0  0  0  0  0  0  0
    8.4391    6.6439   21.0235 C   0  0  0  0  0  0  0  0  0  0  0  0
    9.6494   11.1353   20.4167 C   0  0  0  0  0  0  0  0  0  0  0  0
    8.1431    7.6829   21.9046 C   0  0  0  0  0  0  0  0  0  0  0  0
    7.7796   10.1314   21.5115 N   0  0  0  0  0  0  0  0  0  0  0  0
    9.2768    5.6183   21.4437 C   0  0  0  0  0  0  0  0  0  0  0  0
    8.6315    7.7322   23.1768 C   0  0  0  0  0  0  0  0  0  0  0  0
   13.0537    9.9821   20.5781 C   0  0  0  0  0  0  0  0  0  0  0  0
   10.3850    4.6575   23.2386 O   0  0  0  0  0  0  0  0  0  0  0  0
    4.2069    6.8450   20.7994 C   0  0  0  0  0  0  0  0  0  0  0  0
    3.0726   10.1043   19.8522 O   0  0  0  0  0  0  0  0  0  0  0  0
    5.5057    7.1196   21.1155 C   0  0  0  0  0  0  0  0  0  0  0  0
    7.0367   11.0229   21.9948 O   0  0  0  0  0  0  0  0  0  0  0  0
  1  8  4  0
  1 12  4  0
  2  9  1  0
  2 11  4  0
  2 25  4  0
  3 12  4  0
  3 14  1  0
  3 23  4  0
  4 13  4  0
  4 21  4  0
  4 24  1  0
  5  8  4  0
  5 23  4  0
  6 18  2  0
  7 15  4  0
  7 16  1  0
  7 27  4  0
  8 18  1  0
 10 18  1  0
 10 20  1  0
 11 15  4  0
 11 26  1  0
 13 22  4  0
 16 19  1  0
 16 20  2  0
 17 19  4  0
 17 21  4  0
 19 22  4  0
 20 28  1  0
 25 27  4  0
M  END
$$$$

 Created by Python create_sdf_string function

 28 30  0  0  0  0  0  0  0  0999 V2000
   11.4592   11.2893   18.7941 C   0  0  0  0  0  0  0  0  0  0  0  0
    3.4202    7.9009   20.3866 C   0  0  0  0  0  0  0  0  0  0  0  0
   13.5280   10.3522   19.3586 C   0  0  0  0  0  0  0  0  0  0  0  0
    9.6923    5.6468   22.7891 C   0  0  0  0  0  0  0  0  0  0  0  0
   11.7756   10.2554   20.8841 N   0  0  0  0  0  0  0  0  0  0  0  0
    8.9876   11.9370   19.8757 O   0  0  0  0  0  0  0  0  0  0  0  0
    6.0167    8.4478   21.1089 C   0  0  0  0  0  0  0  0  0  0  0  0
   11.0002   10.8890   20.0262 C   0  0  0  0  0  0  0  0  0  0  0  0
    2.1721    7.7393   20.0315 O   0  0  0  0  0  0  0  0  0  0  0  0
    9.1107   10.3880   21.3769 N   0  0  0  0  0  0  0  0  0  0  0  0
    3.9102    9.2008   20.3124 C   0  0  0  0  0  0  0  0  0  0  0  0
   12.7292   10.9960   18.4597 C   0  0  0  0  0  0  0  0  0  0  0  0
    9.3798    6.6793   23.6625 C   0  0  0  0  0  0  0  0  0  0  0  0
   14.7425   10.0739   19.0802 O   0  0  0  0  0  0  0  0  0  0  0  0
    5.1894    9.4673   20.7118 C   0  0  0  0  0  0  0  0  0  0  0  0
    7.3773    8.8224   21.4870 C   0  0  0  0  0  0  0  0  0  0  0  0
    8.4391    6.6439   21.0235 C   0  0  0  0  0  0  0  0  0  0  0  0
    9.6494   11.1353   20.4167 C   0  0  0  0  0  0  0  0  0  0  0  0
    8.1431    7.6829   21.9046 C   0  0  0  0  0  0  0  0  0  0  0  0
    7.7796   10.1314   21.5115 N   0  0  0  0  0  0  0  0  0  0  0  0
    9.2768    5.6183   21.4437 C   0  0  0  0  0  0  0  0  0  0  0  0
    8.6315    7.7322   23.1768 C   0  0  0  0  0  0  0  0  0  0  0  0
   13.0537    9.9821   20.5781 C   0  0  0  0  0  0  0  0  0  0  0  0
   10.3850    4.6575   23.2386 O   0  0  0  0  0  0  0  0  0  0  0  0
    4.2069    6.8450   20.7994 C   0  0  0  0  0  0  0  0  0  0  0  0
    3.0726   10.1043   19.8522 O   0  0  0  0  0  0  0  0  0  0  0  0
    5.5057    7.1196   21.1155 C   0  0  0  0  0  0  0  0  0  0  0  0
    7.0367   11.0229   21.9948 O   0  0  0  0  0  0  0  0  0  0  0  0
  1  8  4  0
  1 12  4  0
  2  9  1  0
  2 11  4  0
  2 25  4  0
  3 12  4  0
  3 14  1  0
  3 23  4  0
  4 13  4  0
  4 21  4  0
  4 24  1  0
  5  8  4  0
  5 23  4  0
  6 18  2  0
  7 15  4  0
  7 16  1  0
  7 27  4  0
  8 18  1  0
 10 18  1  0
 10 20  1  0
 11 15  4  0
 11 26  1  0
 13 22  4  0
 16 19  1  0
 16 20  2  0
 17 19  4  0
 17 21  4  0
 19 22  4  0
 20 28  1  0
 25 27  4  0
M  END
$$$$

 Created by Python create_sdf_string function

 28 30  0  0  0  0  0  0  0  0999 V2000
   11.4592   11.2893   18.7941 C   0  0  0  0  0  0  0  0  0  0  0  0
    3.4202    7.9009   20.3866 C   0  0  0  0  0  0  0  0  0  0  0  0
   13.5280   10.3522   19.3586 C   0  0  0  0  0  0  0  0  0  0  0  0
    9.6923    5.6468   22.7891 C   0  0  0  0  0  0  0  0  0  0  0  0
   11.7756   10.2554   20.8841 N   0  0  0  0  0  0  0  0  0  0  0  0
    8.9876   11.9370   19.8757 O   0  0  0  0  0  0  0  0  0  0  0  0
    6.0167    8.4478   21.1089 C   0  0  0  0  0  0  0  0  0  0  0  0
   11.0002   10.8890   20.0262 C   0  0  0  0  0  0  0  0  0  0  0  0
    2.1721    7.7393   20.0315 O   0  0  0  0  0  0  0  0  0  0  0  0
    9.1107   10.3880   21.3769 N   0  0  0  0  0  0  0  0  0  0  0  0
    3.9102    9.2008   20.3124 C   0  0  0  0  0  0  0  0  0  0  0  0
   12.7292   10.9960   18.4597 C   0  0  0  0  0  0  0  0  0  0  0  0
    9.3798    6.6793   23.6625 C   0  0  0  0  0  0  0  0  0  0  0  0
   14.7425   10.0739   19.0802 O   0  0  0  0  0  0  0  0  0  0  0  0
    5.1894    9.4673   20.7118 C   0  0  0  0  0  0  0  0  0  0  0  0
    7.3773    8.8224   21.4870 C   0  0  0  0  0  0  0  0  0  0  0  0
    8.4391    6.6439   21.0235 C   0  0  0  0  0  0  0  0  0  0  0  0
    9.6494   11.1353   20.4167 C   0  0  0  0  0  0  0  0  0  0  0  0
    8.1431    7.6829   21.9046 C   0  0  0  0  0  0  0  0  0  0  0  0
    7.7796   10.1314   21.5115 N   0  0  0  0  0  0  0  0  0  0  0  0
    9.2768    5.6183   21.4437 C   0  0  0  0  0  0  0  0  0  0  0  0
    8.6315    7.7322   23.1768 C   0  0  0  0  0  0  0  0  0  0  0  0
   13.0537    9.9821   20.5781 C   0  0  0  0  0  0  0  0  0  0  0  0
   10.3850    4.6575   23.2386 O   0  0  0  0  0  0  0  0  0  0  0  0
    4.2069    6.8450   20.7994 C   0  0  0  0  0  0  0  0  0  0  0  0
    3.0726   10.1043   19.8522 O   0  0  0  0  0  0  0  0  0  0  0  0
    5.5057    7.1196   21.1155 C   0  0  0  0  0  0  0  0  0  0  0  0
    7.0367   11.0229   21.9948 O   0  0  0  0  0  0  0  0  0  0  0  0
  1  8  4  0
  1 12  4  0
  2  9  1  0
  2 11  4  0
  2 25  4  0
  3 12  4  0
  3 14  1  0
  3 23  4  0
  4 13  4  0
  4 21  4  0
  4 24  1  0
  5  8  4  0
  5 23  4  0
  6 18  2  0
  7 15  4  0
  7 16  1  0
  7 27  4  0
  8 18  1  0
 10 18  1  0
 10 20  1  0
 11 15  4  0
 11 26  1  0
 13 22  4  0
 16 19  1  0
 16 20  2  0
 17 19  4  0
 17 21  4  0
 19 22  4  0
 20 28  1  0
 25 27  4  0
M  END
$$$$

 Created by Python create_sdf_string function

 28 30  0  0  0  0  0  0  0  0999 V2000
   11.4592   11.2893   18.7941 C   0  0  0  0  0  0  0  0  0  0  0  0
    3.4202    7.9009   20.3866 C   0  0  0  0  0  0  0  0  0  0  0  0
   13.5280   10.3522   19.3586 C   0  0  0  0  0  0  0  0  0  0  0  0
    9.6923    5.6468   22.7891 C   0  0  0  0  0  0  0  0  0  0  0  0
   11.7756   10.2554   20.8841 N   0  0  0  0  0  0  0  0  0  0  0  0
    8.9876   11.9370   19.8757 O   0  0  0  0  0  0  0  0  0  0  0  0
    6.0167    8.4478   21.1089 C   0  0  0  0  0  0  0  0  0  0  0  0
   11.0002   10.8890   20.0262 C   0  0  0  0  0  0  0  0  0  0  0  0
    2.1721    7.7393   20.0315 O   0  0  0  0  0  0  0  0  0  0  0  0
    9.1107   10.3880   21.3769 N   0  0  0  0  0  0  0  0  0  0  0  0
    3.9102    9.2008   20.3124 C   0  0  0  0  0  0  0  0  0  0  0  0
   12.7292   10.9960   18.4597 C   0  0  0  0  0  0  0  0  0  0  0  0
    9.3798    6.6793   23.6625 C   0  0  0  0  0  0  0  0  0  0  0  0
   14.7425   10.0739   19.0802 O   0  0  0  0  0  0  0  0  0  0  0  0
    5.1894    9.4673   20.7118 C   0  0  0  0  0  0  0  0  0  0  0  0
    7.3773    8.8224   21.4870 C   0  0  0  0  0  0  0  0  0  0  0  0
    8.4391    6.6439   21.0235 C   0  0  0  0  0  0  0  0  0  0  0  0
    9.6494   11.1353   20.4167 C   0  0  0  0  0  0  0  0  0  0  0  0
    8.1431    7.6829   21.9046 C   0  0  0  0  0  0  0  0  0  0  0  0
    7.7796   10.1314   21.5115 N   0  0  0  0  0  0  0  0  0  0  0  0
    9.2768    5.6183   21.4437 C   0  0  0  0  0  0  0  0  0  0  0  0
    8.6315    7.7322   23.1768 C   0  0  0  0  0  0  0  0  0  0  0  0
   13.0537    9.9821   20.5781 C   0  0  0  0  0  0  0  0  0  0  0  0
   10.3850    4.6575   23.2386 O   0  0  0  0  0  0  0  0  0  0  0  0
    4.2069    6.8450   20.7994 C   0  0  0  0  0  0  0  0  0  0  0  0
    3.0726   10.1043   19.8522 O   0  0  0  0  0  0  0  0  0  0  0  0
    5.5057    7.1196   21.1155 C   0  0  0  0  0  0  0  0  0  0  0  0
    7.0367   11.0229   21.9948 O   0  0  0  0  0  0  0  0  0  0  0  0
  1  8  4  0
  1 12  4  0
  2  9  1  0
  2 11  4  0
  2 25  4  0
  3 12  4  0
  3 14  1  0
  3 23  4  0
  4 13  4  0
  4 21  4  0
  4 24  1  0
  5  8  4  0
  5 23  4  0
  6 18  2  0
  7 15  4  0
  7 16  1  0
  7 27  4  0
  8 18  1  0
 10 18  1  0
 10 20  1  0
 11 15  4  0
 11 26  1  0
 13 22  4  0
 16 19  1  0
 16 20  2  0
 17 19  4  0
 17 21  4  0
 19 22  4  0
 20 28  1  0
 25 27  4  0
M  END
$$$$

 Created by Python create_sdf_string function

 28 30  0  0  0  0  0  0  0  0999 V2000
   11.4592   11.2893   18.7941 C   0  0  0  0  0  0  0  0  0  0  0  0
    3.4202    7.9009   20.3866 C   0  0  0  0  0  0  0  0  0  0  0  0
   13.5280   10.3522   19.3586 C   0  0  0  0  0  0  0  0  0  0  0  0
    9.6923    5.6468   22.7891 C   0  0  0  0  0  0  0  0  0  0  0  0
   11.7756   10.2554   20.8841 N   0  0  0  0  0  0  0  0  0  0  0  0
    8.9876   11.9370   19.8757 O   0  0  0  0  0  0  0  0  0  0  0  0
    6.0167    8.4478   21.1089 C   0  0  0  0  0  0  0  0  0  0  0  0
   11.0002   10.8890   20.0262 C   0  0  0  0  0  0  0  0  0  0  0  0
    2.1721    7.7393   20.0315 O   0  0  0  0  0  0  0  0  0  0  0  0
    9.1107   10.3880   21.3769 N   0  0  0  0  0  0  0  0  0  0  0  0
    3.9102    9.2008   20.3124 C   0  0  0  0  0  0  0  0  0  0  0  0
   12.7292   10.9960   18.4597 C   0  0  0  0  0  0  0  0  0  0  0  0
    9.3798    6.6793   23.6625 C   0  0  0  0  0  0  0  0  0  0  0  0
   14.7425   10.0739   19.0802 O   0  0  0  0  0  0  0  0  0  0  0  0
    5.1894    9.4673   20.7118 C   0  0  0  0  0  0  0  0  0  0  0  0
    7.3773    8.8224   21.4870 C   0  0  0  0  0  0  0  0  0  0  0  0
    8.4391    6.6439   21.0235 C   0  0  0  0  0  0  0  0  0  0  0  0
    9.6494   11.1353   20.4167 C   0  0  0  0  0  0  0  0  0  0  0  0
    8.1431    7.6829   21.9046 C   0  0  0  0  0  0  0  0  0  0  0  0
    7.7796   10.1314   21.5115 N   0  0  0  0  0  0  0  0  0  0  0  0
    9.2768    5.6183   21.4437 C   0  0  0  0  0  0  0  0  0  0  0  0
    8.6315    7.7322   23.1768 C   0  0  0  0  0  0  0  0  0  0  0  0
   13.0537    9.9821   20.5781 C   0  0  0  0  0  0  0  0  0  0  0  0
   10.3850    4.6575   23.2386 O   0  0  0  0  0  0  0  0  0  0  0  0
    4.2069    6.8450   20.7994 C   0  0  0  0  0  0  0  0  0  0  0  0
    3.0726   10.1043   19.8522 O   0  0  0  0  0  0  0  0  0  0  0  0
    5.5057    7.1196   21.1155 C   0  0  0  0  0  0  0  0  0  0  0  0
    7.0367   11.0229   21.9948 O   0  0  0  0  0  0  0  0  0  0  0  0
  1  8  4  0
  1 12  4  0
  2  9  1  0
  2 11  4  0
  2 25  4  0
  3 12  4  0
  3 14  1  0
  3 23  4  0
  4 13  4  0
  4 21  4  0
  4 24  1  0
  5  8  4  0
  5 23  4  0
  6 18  2  0
  7 15  4  0
  7 16  1  0
  7 27  4  0
  8 18  1  0
 10 18  1  0
 10 20  1  0
 11 15  4  0
 11 26  1  0
 13 22  4  0
 16 19  1  0
 16 20  2  0
 17 19  4  0
 17 21  4  0
 19 22  4  0
 20 28  1  0
 25 27  4  0
M  END
$$$$

 Created by Python create_sdf_string function

 28 30  0  0  0  0  0  0  0  0999 V2000
   11.4592   11.2893   18.7941 C   0  0  0  0  0  0  0  0  0  0  0  0
    3.4202    7.9009   20.3866 C   0  0  0  0  0  0  0  0  0  0  0  0
   13.5280   10.3522   19.3586 C   0  0  0  0  0  0  0  0  0  0  0  0
    9.6923    5.6468   22.7891 C   0  0  0  0  0  0  0  0  0  0  0  0
   11.7756   10.2554   20.8841 N   0  0  0  0  0  0  0  0  0  0  0  0
    8.9876   11.9370   19.8757 O   0  0  0  0  0  0  0  0  0  0  0  0
    6.0167    8.4478   21.1089 C   0  0  0  0  0  0  0  0  0  0  0  0
   11.0002   10.8890   20.0262 C   0  0  0  0  0  0  0  0  0  0  0  0
    2.1721    7.7393   20.0315 O   0  0  0  0  0  0  0  0  0  0  0  0
    9.1107   10.3880   21.3769 N   0  0  0  0  0  0  0  0  0  0  0  0
    3.9102    9.2008   20.3124 C   0  0  0  0  0  0  0  0  0  0  0  0
   12.7292   10.9960   18.4597 C   0  0  0  0  0  0  0  0  0  0  0  0
    9.3798    6.6793   23.6625 C   0  0  0  0  0  0  0  0  0  0  0  0
   14.7425   10.0739   19.0802 O   0  0  0  0  0  0  0  0  0  0  0  0
    5.1894    9.4673   20.7118 C   0  0  0  0  0  0  0  0  0  0  0  0
    7.3773    8.8224   21.4870 C   0  0  0  0  0  0  0  0  0  0  0  0
    8.4391    6.6439   21.0235 C   0  0  0  0  0  0  0  0  0  0  0  0
    9.6494   11.1353   20.4167 C   0  0  0  0  0  0  0  0  0  0  0  0
    8.1431    7.6829   21.9046 C   0  0  0  0  0  0  0  0  0  0  0  0
    7.7796   10.1314   21.5115 N   0  0  0  0  0  0  0  0  0  0  0  0
    9.2768    5.6183   21.4437 C   0  0  0  0  0  0  0  0  0  0  0  0
    8.6315    7.7322   23.1768 C   0  0  0  0  0  0  0  0  0  0  0  0
   13.0537    9.9821   20.5781 C   0  0  0  0  0  0  0  0  0  0  0  0
   10.3850    4.6575   23.2386 O   0  0  0  0  0  0  0  0  0  0  0  0
    4.2069    6.8450   20.7994 C   0  0  0  0  0  0  0  0  0  0  0  0
    3.0726   10.1043   19.8522 O   0  0  0  0  0  0  0  0  0  0  0  0
    5.5057    7.1196   21.1155 C   0  0  0  0  0  0  0  0  0  0  0  0
    7.0367   11.0229   21.9948 O   0  0  0  0  0  0  0  0  0  0  0  0
  1  8  4  0
  1 12  4  0
  2  9  1  0
  2 11  4  0
  2 25  4  0
  3 12  4  0
  3 14  1  0
  3 23  4  0
  4 13  4  0
  4 21  4  0
  4 24  1  0
  5  8  4  0
  5 23  4  0
  6 18  2  0
  7 15  4  0
  7 16  1  0
  7 27  4  0
  8 18  1  0
 10 18  1  0
 10 20  1  0
 11 15  4  0
 11 26  1  0
 13 22  4  0
 16 19  1  0
 16 20  2  0
 17 19  4  0
 17 21  4  0
 19 22  4  0
 20 28  1  0
 25 27  4  0
M  END
$$$$

 Created by Python create_sdf_string function

 28 30  0  0  0  0  0  0  0  0999 V2000
   11.4592   11.2893   18.7941 C   0  0  0  0  0  0  0  0  0  0  0  0
    3.4202    7.9009   20.3866 C   0  0  0  0  0  0  0  0  0  0  0  0
   13.5280   10.3522   19.3586 C   0  0  0  0  0  0  0  0  0  0  0  0
    9.6923    5.6468   22.7891 C   0  0  0  0  0  0  0  0  0  0  0  0
   11.7756   10.2554   20.8841 N   0  0  0  0  0  0  0  0  0  0  0  0
    8.9876   11.9370   19.8757 O   0  0  0  0  0  0  0  0  0  0  0  0
    6.0167    8.4478   21.1089 C   0  0  0  0  0  0  0  0  0  0  0  0
   11.0002   10.8890   20.0262 C   0  0  0  0  0  0  0  0  0  0  0  0
    2.1721    7.7393   20.0315 O   0  0  0  0  0  0  0  0  0  0  0  0
    9.1107   10.3880   21.3769 N   0  0  0  0  0  0  0  0  0  0  0  0
    3.9102    9.2008   20.3124 C   0  0  0  0  0  0  0  0  0  0  0  0
   12.7292   10.9960   18.4597 C   0  0  0  0  0  0  0  0  0  0  0  0
    9.3798    6.6793   23.6625 C   0  0  0  0  0  0  0  0  0  0  0  0
   14.7425   10.0739   19.0802 O   0  0  0  0  0  0  0  0  0  0  0  0
    5.1894    9.4673   20.7118 C   0  0  0  0  0  0  0  0  0  0  0  0
    7.3773    8.8224   21.4870 C   0  0  0  0  0  0  0  0  0  0  0  0
    8.4391    6.6439   21.0235 C   0  0  0  0  0  0  0  0  0  0  0  0
    9.6494   11.1353   20.4167 C   0  0  0  0  0  0  0  0  0  0  0  0
    8.1431    7.6829   21.9046 C   0  0  0  0  0  0  0  0  0  0  0  0
    7.7796   10.1314   21.5115 N   0  0  0  0  0  0  0  0  0  0  0  0
    9.2768    5.6183   21.4437 C   0  0  0  0  0  0  0  0  0  0  0  0
    8.6315    7.7322   23.1768 C   0  0  0  0  0  0  0  0  0  0  0  0
   13.0537    9.9821   20.5781 C   0  0  0  0  0  0  0  0  0  0  0  0
   10.3850    4.6575   23.2386 O   0  0  0  0  0  0  0  0  0  0  0  0
    4.2069    6.8450   20.7994 C   0  0  0  0  0  0  0  0  0  0  0  0
    3.0726   10.1043   19.8522 O   0  0  0  0  0  0  0  0  0  0  0  0
    5.5057    7.1196   21.1155 C   0  0  0  0  0  0  0  0  0  0  0  0
    7.0367   11.0229   21.9948 O   0  0  0  0  0  0  0  0  0  0  0  0
  1  8  4  0
  1 12  4  0
  2  9  1  0
  2 11  4  0
  2 25  4  0
  3 12  4  0
  3 14  1  0
  3 23  4  0
  4 13  4  0
  4 21  4  0
  4 24  1  0
  5  8  4  0
  5 23  4  0
  6 18  2  0
  7 15  4  0
  7 16  1  0
  7 27  4  0
  8 18  1  0
 10 18  1  0
 10 20  1  0
 11 15  4  0
 11 26  1  0
 13 22  4  0
 16 19  1  0
 16 20  2  0
 17 19  4  0
 17 21  4  0
 19 22  4  0
 20 28  1  0
 25 27  4  0
M  END
$$$$

 Created by Python create_sdf_string function

 28 30  0  0  0  0  0  0  0  0999 V2000
   11.4592   11.2893   18.7941 C   0  0  0  0  0  0  0  0  0  0  0  0
    3.4202    7.9009   20.3866 C   0  0  0  0  0  0  0  0  0  0  0  0
   13.5280   10.3522   19.3586 C   0  0  0  0  0  0  0  0  0  0  0  0
    9.6923    5.6468   22.7891 C   0  0  0  0  0  0  0  0  0  0  0  0
   11.7756   10.2554   20.8841 N   0  0  0  0  0  0  0  0  0  0  0  0
    8.9876   11.9370   19.8757 O   0  0  0  0  0  0  0  0  0  0  0  0
    6.0167    8.4478   21.1089 C   0  0  0  0  0  0  0  0  0  0  0  0
   11.0002   10.8890   20.0262 C   0  0  0  0  0  0  0  0  0  0  0  0
    2.1721    7.7393   20.0315 O   0  0  0  0  0  0  0  0  0  0  0  0
    9.1107   10.3880   21.3769 N   0  0  0  0  0  0  0  0  0  0  0  0
    3.9102    9.2008   20.3124 C   0  0  0  0  0  0  0  0  0  0  0  0
   12.7292   10.9960   18.4597 C   0  0  0  0  0  0  0  0  0  0  0  0
    9.3798    6.6793   23.6625 C   0  0  0  0  0  0  0  0  0  0  0  0
   14.7425   10.0739   19.0802 O   0  0  0  0  0  0  0  0  0  0  0  0
    5.1894    9.4673   20.7118 C   0  0  0  0  0  0  0  0  0  0  0  0
    7.3773    8.8224   21.4870 C   0  0  0  0  0  0  0  0  0  0  0  0
    8.4391    6.6439   21.0235 C   0  0  0  0  0  0  0  0  0  0  0  0
    9.6494   11.1353   20.4167 C   0  0  0  0  0  0  0  0  0  0  0  0
    8.1431    7.6829   21.9046 C   0  0  0  0  0  0  0  0  0  0  0  0
    7.7796   10.1314   21.5115 N   0  0  0  0  0  0  0  0  0  0  0  0
    9.2768    5.6183   21.4437 C   0  0  0  0  0  0  0  0  0  0  0  0
    8.6315    7.7322   23.1768 C   0  0  0  0  0  0  0  0  0  0  0  0
   13.0537    9.9821   20.5781 C   0  0  0  0  0  0  0  0  0  0  0  0
   10.3850    4.6575   23.2386 O   0  0  0  0  0  0  0  0  0  0  0  0
    4.2069    6.8450   20.7994 C   0  0  0  0  0  0  0  0  0  0  0  0
    3.0726   10.1043   19.8522 O   0  0  0  0  0  0  0  0  0  0  0  0
    5.5057    7.1196   21.1155 C   0  0  0  0  0  0  0  0  0  0  0  0
    7.0367   11.0229   21.9948 O   0  0  0  0  0  0  0  0  0  0  0  0
  1  8  4  0
  1 12  4  0
  2  9  1  0
  2 11  4  0
  2 25  4  0
  3 12  4  0
  3 14  1  0
  3 23  4  0
  4 13  4  0
  4 21  4  0
  4 24  1  0
  5  8  4  0
  5 23  4  0
  6 18  2  0
  7 15  4  0
  7 16  1  0
  7 27  4  0
  8 18  1  0
 10 18  1  0
 10 20  1  0
 11 15  4  0
 11 26  1  0
 13 22  4  0
 16 19  1  0
 16 20  2  0
 17 19  4  0
 17 21  4  0
 19 22  4  0
 20 28  1  0
 25 27  4  0
M  END
$$$$

 Created by Python create_sdf_string function

 28 30  0  0  0  0  0  0  0  0999 V2000
   11.4592   11.2893   18.7941 C   0  0  0  0  0  0  0  0  0  0  0  0
    3.4202    7.9009   20.3866 C   0  0  0  0  0  0  0  0  0  0  0  0
   13.5280   10.3522   19.3586 C   0  0  0  0  0  0  0  0  0  0  0  0
    9.6923    5.6468   22.7891 C   0  0  0  0  0  0  0  0  0  0  0  0
   11.7756   10.2554   20.8841 N   0  0  0  0  0  0  0  0  0  0  0  0
    8.9876   11.9370   19.8757 O   0  0  0  0  0  0  0  0  0  0  0  0
    6.0167    8.4478   21.1089 C   0  0  0  0  0  0  0  0  0  0  0  0
   11.0002   10.8890   20.0262 C   0  0  0  0  0  0  0  0  0  0  0  0
    2.1721    7.7393   20.0315 O   0  0  0  0  0  0  0  0  0  0  0  0
    9.1107   10.3880   21.3769 N   0  0  0  0  0  0  0  0  0  0  0  0
    3.9102    9.2008   20.3124 C   0  0  0  0  0  0  0  0  0  0  0  0
   12.7292   10.9960   18.4597 C   0  0  0  0  0  0  0  0  0  0  0  0
    9.3798    6.6793   23.6625 C   0  0  0  0  0  0  0  0  0  0  0  0
   14.7425   10.0739   19.0802 O   0  0  0  0  0  0  0  0  0  0  0  0
    5.1894    9.4673   20.7118 C   0  0  0  0  0  0  0  0  0  0  0  0
    7.3773    8.8224   21.4870 C   0  0  0  0  0  0  0  0  0  0  0  0
    8.4391    6.6439   21.0235 C   0  0  0  0  0  0  0  0  0  0  0  0
    9.6494   11.1353   20.4167 C   0  0  0  0  0  0  0  0  0  0  0  0
    8.1431    7.6829   21.9046 C   0  0  0  0  0  0  0  0  0  0  0  0
    7.7796   10.1314   21.5115 N   0  0  0  0  0  0  0  0  0  0  0  0
    9.2768    5.6183   21.4437 C   0  0  0  0  0  0  0  0  0  0  0  0
    8.6315    7.7322   23.1768 C   0  0  0  0  0  0  0  0  0  0  0  0
   13.0537    9.9821   20.5781 C   0  0  0  0  0  0  0  0  0  0  0  0
   10.3850    4.6575   23.2386 O   0  0  0  0  0  0  0  0  0  0  0  0
    4.2069    6.8450   20.7994 C   0  0  0  0  0  0  0  0  0  0  0  0
    3.0726   10.1043   19.8522 O   0  0  0  0  0  0  0  0  0  0  0  0
    5.5057    7.1196   21.1155 C   0  0  0  0  0  0  0  0  0  0  0  0
    7.0367   11.0229   21.9948 O   0  0  0  0  0  0  0  0  0  0  0  0
  1  8  4  0
  1 12  4  0
  2  9  1  0
  2 11  4  0
  2 25  4  0
  3 12  4  0
  3 14  1  0
  3 23  4  0
  4 13  4  0
  4 21  4  0
  4 24  1  0
  5  8  4  0
  5 23  4  0
  6 18  2  0
  7 15  4  0
  7 16  1  0
  7 27  4  0
  8 18  1  0
 10 18  1  0
 10 20  1  0
 11 15  4  0
 11 26  1  0
 13 22  4  0
 16 19  1  0
 16 20  2  0
 17 19  4  0
 17 21  4  0
 19 22  4  0
 20 28  1  0
 25 27  4  0
M  END
$$$$

 Created by Python create_sdf_string function

 28 30  0  0  0  0  0  0  0  0999 V2000
   11.4592   11.2893   18.7941 C   0  0  0  0  0  0  0  0  0  0  0  0
    3.4202    7.9009   20.3866 C   0  0  0  0  0  0  0  0  0  0  0  0
   13.5280   10.3522   19.3586 C   0  0  0  0  0  0  0  0  0  0  0  0
    9.6923    5.6468   22.7891 C   0  0  0  0  0  0  0  0  0  0  0  0
   11.7756   10.2554   20.8841 N   0  0  0  0  0  0  0  0  0  0  0  0
    8.9876   11.9370   19.8757 O   0  0  0  0  0  0  0  0  0  0  0  0
    6.0167    8.4478   21.1089 C   0  0  0  0  0  0  0  0  0  0  0  0
   11.0002   10.8890   20.0262 C   0  0  0  0  0  0  0  0  0  0  0  0
    2.1721    7.7393   20.0315 O   0  0  0  0  0  0  0  0  0  0  0  0
    9.1107   10.3880   21.3769 N   0  0  0  0  0  0  0  0  0  0  0  0
    3.9102    9.2008   20.3124 C   0  0  0  0  0  0  0  0  0  0  0  0
   12.7292   10.9960   18.4597 C   0  0  0  0  0  0  0  0  0  0  0  0
    9.3798    6.6793   23.6625 C   0  0  0  0  0  0  0  0  0  0  0  0
   14.7425   10.0739   19.0802 O   0  0  0  0  0  0  0  0  0  0  0  0
    5.1894    9.4673   20.7118 C   0  0  0  0  0  0  0  0  0  0  0  0
    7.3773    8.8224   21.4870 C   0  0  0  0  0  0  0  0  0  0  0  0
    8.4391    6.6439   21.0235 C   0  0  0  0  0  0  0  0  0  0  0  0
    9.6494   11.1353   20.4167 C   0  0  0  0  0  0  0  0  0  0  0  0
    8.1431    7.6829   21.9046 C   0  0  0  0  0  0  0  0  0  0  0  0
    7.7796   10.1314   21.5115 N   0  0  0  0  0  0  0  0  0  0  0  0
    9.2768    5.6183   21.4437 C   0  0  0  0  0  0  0  0  0  0  0  0
    8.6315    7.7322   23.1768 C   0  0  0  0  0  0  0  0  0  0  0  0
   13.0537    9.9821   20.5781 C   0  0  0  0  0  0  0  0  0  0  0  0
   10.3850    4.6575   23.2386 O   0  0  0  0  0  0  0  0  0  0  0  0
    4.2069    6.8450   20.7994 C   0  0  0  0  0  0  0  0  0  0  0  0
    3.0726   10.1043   19.8522 O   0  0  0  0  0  0  0  0  0  0  0  0
    5.5057    7.1196   21.1155 C   0  0  0  0  0  0  0  0  0  0  0  0
    7.0367   11.0229   21.9948 O   0  0  0  0  0  0  0  0  0  0  0  0
  1  8  4  0
  1 12  4  0
  2  9  1  0
  2 11  4  0
  2 25  4  0
  3 12  4  0
  3 14  1  0
  3 23  4  0
  4 13  4  0
  4 21  4  0
  4 24  1  0
  5  8  4  0
  5 23  4  0
  6 18  2  0
  7 15  4  0
  7 16  1  0
  7 27  4  0
  8 18  1  0
 10 18  1  0
 10 20  1  0
 11 15  4  0
 11 26  1  0
 13 22  4  0
 16 19  1  0
 16 20  2  0
 17 19  4  0
 17 21  4  0
 19 22  4  0
 20 28  1  0
 25 27  4  0
M  END
$$$$

 Created by Python create_sdf_string function

 28 30  0  0  0  0  0  0  0  0999 V2000
   11.4592   11.2893   18.7941 C   0  0  0  0  0  0  0  0  0  0  0  0
    3.4202    7.9009   20.3866 C   0  0  0  0  0  0  0  0  0  0  0  0
   13.5280   10.3522   19.3586 C   0  0  0  0  0  0  0  0  0  0  0  0
    9.6923    5.6468   22.7891 C   0  0  0  0  0  0  0  0  0  0  0  0
   11.7756   10.2554   20.8841 N   0  0  0  0  0  0  0  0  0  0  0  0
    8.9876   11.9370   19.8757 O   0  0  0  0  0  0  0  0  0  0  0  0
    6.0167    8.4478   21.1089 C   0  0  0  0  0  0  0  0  0  0  0  0
   11.0002   10.8890   20.0262 C   0  0  0  0  0  0  0  0  0  0  0  0
    2.1721    7.7393   20.0315 O   0  0  0  0  0  0  0  0  0  0  0  0
    9.1107   10.3880   21.3769 N   0  0  0  0  0  0  0  0  0  0  0  0
    3.9102    9.2008   20.3124 C   0  0  0  0  0  0  0  0  0  0  0  0
   12.7292   10.9960   18.4597 C   0  0  0  0  0  0  0  0  0  0  0  0
    9.3798    6.6793   23.6625 C   0  0  0  0  0  0  0  0  0  0  0  0
   14.7425   10.0739   19.0802 O   0  0  0  0  0  0  0  0  0  0  0  0
    5.1894    9.4673   20.7118 C   0  0  0  0  0  0  0  0  0  0  0  0
    7.3773    8.8224   21.4870 C   0  0  0  0  0  0  0  0  0  0  0  0
    8.4391    6.6439   21.0235 C   0  0  0  0  0  0  0  0  0  0  0  0
    9.6494   11.1353   20.4167 C   0  0  0  0  0  0  0  0  0  0  0  0
    8.1431    7.6829   21.9046 C   0  0  0  0  0  0  0  0  0  0  0  0
    7.7796   10.1314   21.5115 N   0  0  0  0  0  0  0  0  0  0  0  0
    9.2768    5.6183   21.4437 C   0  0  0  0  0  0  0  0  0  0  0  0
    8.6315    7.7322   23.1768 C   0  0  0  0  0  0  0  0  0  0  0  0
   13.0537    9.9821   20.5781 C   0  0  0  0  0  0  0  0  0  0  0  0
   10.3850    4.6575   23.2386 O   0  0  0  0  0  0  0  0  0  0  0  0
    4.2069    6.8450   20.7994 C   0  0  0  0  0  0  0  0  0  0  0  0
    3.0726   10.1043   19.8522 O   0  0  0  0  0  0  0  0  0  0  0  0
    5.5057    7.1196   21.1155 C   0  0  0  0  0  0  0  0  0  0  0  0
    7.0367   11.0229   21.9948 O   0  0  0  0  0  0  0  0  0  0  0  0
  1  8  4  0
  1 12  4  0
  2  9  1  0
  2 11  4  0
  2 25  4  0
  3 12  4  0
  3 14  1  0
  3 23  4  0
  4 13  4  0
  4 21  4  0
  4 24  1  0
  5  8  4  0
  5 23  4  0
  6 18  2  0
  7 15  4  0
  7 16  1  0
  7 27  4  0
  8 18  1  0
 10 18  1  0
 10 20  1  0
 11 15  4  0
 11 26  1  0
 13 22  4  0
 16 19  1  0
 16 20  2  0
 17 19  4  0
 17 21  4  0
 19 22  4  0
 20 28  1  0
 25 27  4  0
M  END
$$$$

 Created by Python create_sdf_string function

 28 30  0  0  0  0  0  0  0  0999 V2000
   11.4592   11.2893   18.7941 C   0  0  0  0  0  0  0  0  0  0  0  0
    3.4202    7.9009   20.3866 C   0  0  0  0  0  0  0  0  0  0  0  0
   13.5280   10.3522   19.3586 C   0  0  0  0  0  0  0  0  0  0  0  0
    9.6923    5.6468   22.7891 C   0  0  0  0  0  0  0  0  0  0  0  0
   11.7756   10.2554   20.8841 N   0  0  0  0  0  0  0  0  0  0  0  0
    8.9876   11.9370   19.8757 O   0  0  0  0  0  0  0  0  0  0  0  0
    6.0167    8.4478   21.1089 C   0  0  0  0  0  0  0  0  0  0  0  0
   11.0002   10.8890   20.0262 C   0  0  0  0  0  0  0  0  0  0  0  0
    2.1721    7.7393   20.0315 O   0  0  0  0  0  0  0  0  0  0  0  0
    9.1107   10.3880   21.3769 N   0  0  0  0  0  0  0  0  0  0  0  0
    3.9102    9.2008   20.3124 C   0  0  0  0  0  0  0  0  0  0  0  0
   12.7292   10.9960   18.4597 C   0  0  0  0  0  0  0  0  0  0  0  0
    9.3798    6.6793   23.6625 C   0  0  0  0  0  0  0  0  0  0  0  0
   14.7425   10.0739   19.0802 O   0  0  0  0  0  0  0  0  0  0  0  0
    5.1894    9.4673   20.7118 C   0  0  0  0  0  0  0  0  0  0  0  0
    7.3773    8.8224   21.4870 C   0  0  0  0  0  0  0  0  0  0  0  0
    8.4391    6.6439   21.0235 C   0  0  0  0  0  0  0  0  0  0  0  0
    9.6494   11.1353   20.4167 C   0  0  0  0  0  0  0  0  0  0  0  0
    8.1431    7.6829   21.9046 C   0  0  0  0  0  0  0  0  0  0  0  0
    7.7796   10.1314   21.5115 N   0  0  0  0  0  0  0  0  0  0  0  0
    9.2768    5.6183   21.4437 C   0  0  0  0  0  0  0  0  0  0  0  0
    8.6315    7.7322   23.1768 C   0  0  0  0  0  0  0  0  0  0  0  0
   13.0537    9.9821   20.5781 C   0  0  0  0  0  0  0  0  0  0  0  0
   10.3850    4.6575   23.2386 O   0  0  0  0  0  0  0  0  0  0  0  0
    4.2069    6.8450   20.7994 C   0  0  0  0  0  0  0  0  0  0  0  0
    3.0726   10.1043   19.8522 O   0  0  0  0  0  0  0  0  0  0  0  0
    5.5057    7.1196   21.1155 C   0  0  0  0  0  0  0  0  0  0  0  0
    7.0367   11.0229   21.9948 O   0  0  0  0  0  0  0  0  0  0  0  0
  1  8  4  0
  1 12  4  0
  2  9  1  0
  2 11  4  0
  2 25  4  0
  3 12  4  0
  3 14  1  0
  3 23  4  0
  4 13  4  0
  4 21  4  0
  4 24  1  0
  5  8  4  0
  5 23  4  0
  6 18  2  0
  7 15  4  0
  7 16  1  0
  7 27  4  0
  8 18  1  0
 10 18  1  0
 10 20  1  0
 11 15  4  0
 11 26  1  0
 13 22  4  0
 16 19  1  0
 16 20  2  0
 17 19  4  0
 17 21  4  0
 19 22  4  0
 20 28  1  0
 25 27  4  0
M  END
$$$$

 Created by Python create_sdf_string function

 28 30  0  0  0  0  0  0  0  0999 V2000
   11.4592   11.2893   18.7941 C   0  0  0  0  0  0  0  0  0  0  0  0
    3.4202    7.9009   20.3866 C   0  0  0  0  0  0  0  0  0  0  0  0
   13.5280   10.3522   19.3586 C   0  0  0  0  0  0  0  0  0  0  0  0
    9.6923    5.6468   22.7891 C   0  0  0  0  0  0  0  0  0  0  0  0
   11.7756   10.2554   20.8841 N   0  0  0  0  0  0  0  0  0  0  0  0
    8.9876   11.9370   19.8757 O   0  0  0  0  0  0  0  0  0  0  0  0
    6.0167    8.4478   21.1089 C   0  0  0  0  0  0  0  0  0  0  0  0
   11.0002   10.8890   20.0262 C   0  0  0  0  0  0  0  0  0  0  0  0
    2.1721    7.7393   20.0315 O   0  0  0  0  0  0  0  0  0  0  0  0
    9.1107   10.3880   21.3769 N   0  0  0  0  0  0  0  0  0  0  0  0
    3.9102    9.2008   20.3124 C   0  0  0  0  0  0  0  0  0  0  0  0
   12.7292   10.9960   18.4597 C   0  0  0  0  0  0  0  0  0  0  0  0
    9.3798    6.6793   23.6625 C   0  0  0  0  0  0  0  0  0  0  0  0
   14.7425   10.0739   19.0802 O   0  0  0  0  0  0  0  0  0  0  0  0
    5.1894    9.4673   20.7118 C   0  0  0  0  0  0  0  0  0  0  0  0
    7.3773    8.8224   21.4870 C   0  0  0  0  0  0  0  0  0  0  0  0
    8.4391    6.6439   21.0235 C   0  0  0  0  0  0  0  0  0  0  0  0
    9.6494   11.1353   20.4167 C   0  0  0  0  0  0  0  0  0  0  0  0
    8.1431    7.6829   21.9046 C   0  0  0  0  0  0  0  0  0  0  0  0
    7.7796   10.1314   21.5115 N   0  0  0  0  0  0  0  0  0  0  0  0
    9.2768    5.6183   21.4437 C   0  0  0  0  0  0  0  0  0  0  0  0
    8.6315    7.7322   23.1768 C   0  0  0  0  0  0  0  0  0  0  0  0
   13.0537    9.9821   20.5781 C   0  0  0  0  0  0  0  0  0  0  0  0
   10.3850    4.6575   23.2386 O   0  0  0  0  0  0  0  0  0  0  0  0
    4.2069    6.8450   20.7994 C   0  0  0  0  0  0  0  0  0  0  0  0
    3.0726   10.1043   19.8522 O   0  0  0  0  0  0  0  0  0  0  0  0
    5.5057    7.1196   21.1155 C   0  0  0  0  0  0  0  0  0  0  0  0
    7.0367   11.0229   21.9948 O   0  0  0  0  0  0  0  0  0  0  0  0
  1  8  4  0
  1 12  4  0
  2  9  1  0
  2 11  4  0
  2 25  4  0
  3 12  4  0
  3 14  1  0
  3 23  4  0
  4 13  4  0
  4 21  4  0
  4 24  1  0
  5  8  4  0
  5 23  4  0
  6 18  2  0
  7 15  4  0
  7 16  1  0
  7 27  4  0
  8 18  1  0
 10 18  1  0
 10 20  1  0
 11 15  4  0
 11 26  1  0
 13 22  4  0
 16 19  1  0
 16 20  2  0
 17 19  4  0
 17 21  4  0
 19 22  4  0
 20 28  1  0
 25 27  4  0
M  END
$$$$

 Created by Python create_sdf_string function

 28 30  0  0  0  0  0  0  0  0999 V2000
   11.4592   11.2893   18.7941 C   0  0  0  0  0  0  0  0  0  0  0  0
    3.4202    7.9009   20.3866 C   0  0  0  0  0  0  0  0  0  0  0  0
   13.5280   10.3522   19.3586 C   0  0  0  0  0  0  0  0  0  0  0  0
    9.6923    5.6468   22.7891 C   0  0  0  0  0  0  0  0  0  0  0  0
   11.7756   10.2554   20.8841 N   0  0  0  0  0  0  0  0  0  0  0  0
    8.9876   11.9370   19.8757 O   0  0  0  0  0  0  0  0  0  0  0  0
    6.0167    8.4478   21.1089 C   0  0  0  0  0  0  0  0  0  0  0  0
   11.0002   10.8890   20.0262 C   0  0  0  0  0  0  0  0  0  0  0  0
    2.1721    7.7393   20.0315 O   0  0  0  0  0  0  0  0  0  0  0  0
    9.1107   10.3880   21.3769 N   0  0  0  0  0  0  0  0  0  0  0  0
    3.9102    9.2008   20.3124 C   0  0  0  0  0  0  0  0  0  0  0  0
   12.7292   10.9960   18.4597 C   0  0  0  0  0  0  0  0  0  0  0  0
    9.3798    6.6793   23.6625 C   0  0  0  0  0  0  0  0  0  0  0  0
   14.7425   10.0739   19.0802 O   0  0  0  0  0  0  0  0  0  0  0  0
    5.1894    9.4673   20.7118 C   0  0  0  0  0  0  0  0  0  0  0  0
    7.3773    8.8224   21.4870 C   0  0  0  0  0  0  0  0  0  0  0  0
    8.4391    6.6439   21.0235 C   0  0  0  0  0  0  0  0  0  0  0  0
    9.6494   11.1353   20.4167 C   0  0  0  0  0  0  0  0  0  0  0  0
    8.1431    7.6829   21.9046 C   0  0  0  0  0  0  0  0  0  0  0  0
    7.7796   10.1314   21.5115 N   0  0  0  0  0  0  0  0  0  0  0  0
    9.2768    5.6183   21.4437 C   0  0  0  0  0  0  0  0  0  0  0  0
    8.6315    7.7322   23.1768 C   0  0  0  0  0  0  0  0  0  0  0  0
   13.0537    9.9821   20.5781 C   0  0  0  0  0  0  0  0  0  0  0  0
   10.3850    4.6575   23.2386 O   0  0  0  0  0  0  0  0  0  0  0  0
    4.2069    6.8450   20.7994 C   0  0  0  0  0  0  0  0  0  0  0  0
    3.0726   10.1043   19.8522 O   0  0  0  0  0  0  0  0  0  0  0  0
    5.5057    7.1196   21.1155 C   0  0  0  0  0  0  0  0  0  0  0  0
    7.0367   11.0229   21.9948 O   0  0  0  0  0  0  0  0  0  0  0  0
  1  8  4  0
  1 12  4  0
  2  9  1  0
  2 11  4  0
  2 25  4  0
  3 12  4  0
  3 14  1  0
  3 23  4  0
  4 13  4  0
  4 21  4  0
  4 24  1  0
  5  8  4  0
  5 23  4  0
  6 18  2  0
  7 15  4  0
  7 16  1  0
  7 27  4  0
  8 18  1  0
 10 18  1  0
 10 20  1  0
 11 15  4  0
 11 26  1  0
 13 22  4  0
 16 19  1  0
 16 20  2  0
 17 19  4  0
 17 21  4  0
 19 22  4  0
 20 28  1  0
 25 27  4  0
M  END
$$$$

 Created by Python create_sdf_string function

 28 30  0  0  0  0  0  0  0  0999 V2000
   11.4592   11.2893   18.7941 C   0  0  0  0  0  0  0  0  0  0  0  0
    3.4202    7.9009   20.3866 C   0  0  0  0  0  0  0  0  0  0  0  0
   13.5280   10.3522   19.3586 C   0  0  0  0  0  0  0  0  0  0  0  0
    9.6923    5.6468   22.7891 C   0  0  0  0  0  0  0  0  0  0  0  0
   11.7756   10.2554   20.8841 N   0  0  0  0  0  0  0  0  0  0  0  0
    8.9876   11.9370   19.8757 O   0  0  0  0  0  0  0  0  0  0  0  0
    6.0167    8.4478   21.1089 C   0  0  0  0  0  0  0  0  0  0  0  0
   11.0002   10.8890   20.0262 C   0  0  0  0  0  0  0  0  0  0  0  0
    2.1721    7.7393   20.0315 O   0  0  0  0  0  0  0  0  0  0  0  0
    9.1107   10.3880   21.3769 N   0  0  0  0  0  0  0  0  0  0  0  0
    3.9102    9.2008   20.3124 C   0  0  0  0  0  0  0  0  0  0  0  0
   12.7292   10.9960   18.4597 C   0  0  0  0  0  0  0  0  0  0  0  0
    9.3798    6.6793   23.6625 C   0  0  0  0  0  0  0  0  0  0  0  0
   14.7425   10.0739   19.0802 O   0  0  0  0  0  0  0  0  0  0  0  0
    5.1894    9.4673   20.7118 C   0  0  0  0  0  0  0  0  0  0  0  0
    7.3773    8.8224   21.4870 C   0  0  0  0  0  0  0  0  0  0  0  0
    8.4391    6.6439   21.0235 C   0  0  0  0  0  0  0  0  0  0  0  0
    9.6494   11.1353   20.4167 C   0  0  0  0  0  0  0  0  0  0  0  0
    8.1431    7.6829   21.9046 C   0  0  0  0  0  0  0  0  0  0  0  0
    7.7796   10.1314   21.5115 N   0  0  0  0  0  0  0  0  0  0  0  0
    9.2768    5.6183   21.4437 C   0  0  0  0  0  0  0  0  0  0  0  0
    8.6315    7.7322   23.1768 C   0  0  0  0  0  0  0  0  0  0  0  0
   13.0537    9.9821   20.5781 C   0  0  0  0  0  0  0  0  0  0  0  0
   10.3850    4.6575   23.2386 O   0  0  0  0  0  0  0  0  0  0  0  0
    4.2069    6.8450   20.7994 C   0  0  0  0  0  0  0  0  0  0  0  0
    3.0726   10.1043   19.8522 O   0  0  0  0  0  0  0  0  0  0  0  0
    5.5057    7.1196   21.1155 C   0  0  0  0  0  0  0  0  0  0  0  0
    7.0367   11.0229   21.9948 O   0  0  0  0  0  0  0  0  0  0  0  0
  1  8  4  0
  1 12  4  0
  2  9  1  0
  2 11  4  0
  2 25  4  0
  3 12  4  0
  3 14  1  0
  3 23  4  0
  4 13  4  0
  4 21  4  0
  4 24  1  0
  5  8  4  0
  5 23  4  0
  6 18  2  0
  7 15  4  0
  7 16  1  0
  7 27  4  0
  8 18  1  0
 10 18  1  0
 10 20  1  0
 11 15  4  0
 11 26  1  0
 13 22  4  0
 16 19  1  0
 16 20  2  0
 17 19  4  0
 17 21  4  0
 19 22  4  0
 20 28  1  0
 25 27  4  0
M  END
$$$$

 Created by Python create_sdf_string function

 28 30  0  0  0  0  0  0  0  0999 V2000
   11.4592   11.2893   18.7941 C   0  0  0  0  0  0  0  0  0  0  0  0
    3.4202    7.9009   20.3866 C   0  0  0  0  0  0  0  0  0  0  0  0
   13.5280   10.3522   19.3586 C   0  0  0  0  0  0  0  0  0  0  0  0
    9.6923    5.6468   22.7891 C   0  0  0  0  0  0  0  0  0  0  0  0
   11.7756   10.2554   20.8841 N   0  0  0  0  0  0  0  0  0  0  0  0
    8.9876   11.9370   19.8757 O   0  0  0  0  0  0  0  0  0  0  0  0
    6.0167    8.4478   21.1089 C   0  0  0  0  0  0  0  0  0  0  0  0
   11.0002   10.8890   20.0262 C   0  0  0  0  0  0  0  0  0  0  0  0
    2.1721    7.7393   20.0315 O   0  0  0  0  0  0  0  0  0  0  0  0
    9.1107   10.3880   21.3769 N   0  0  0  0  0  0  0  0  0  0  0  0
    3.9102    9.2008   20.3124 C   0  0  0  0  0  0  0  0  0  0  0  0
   12.7292   10.9960   18.4597 C   0  0  0  0  0  0  0  0  0  0  0  0
    9.3798    6.6793   23.6625 C   0  0  0  0  0  0  0  0  0  0  0  0
   14.7425   10.0739   19.0802 O   0  0  0  0  0  0  0  0  0  0  0  0
    5.1894    9.4673   20.7118 C   0  0  0  0  0  0  0  0  0  0  0  0
    7.3773    8.8224   21.4870 C   0  0  0  0  0  0  0  0  0  0  0  0
    8.4391    6.6439   21.0235 C   0  0  0  0  0  0  0  0  0  0  0  0
    9.6494   11.1353   20.4167 C   0  0  0  0  0  0  0  0  0  0  0  0
    8.1431    7.6829   21.9046 C   0  0  0  0  0  0  0  0  0  0  0  0
    7.7796   10.1314   21.5115 N   0  0  0  0  0  0  0  0  0  0  0  0
    9.2768    5.6183   21.4437 C   0  0  0  0  0  0  0  0  0  0  0  0
    8.6315    7.7322   23.1768 C   0  0  0  0  0  0  0  0  0  0  0  0
   13.0537    9.9821   20.5781 C   0  0  0  0  0  0  0  0  0  0  0  0
   10.3850    4.6575   23.2386 O   0  0  0  0  0  0  0  0  0  0  0  0
    4.2069    6.8450   20.7994 C   0  0  0  0  0  0  0  0  0  0  0  0
    3.0726   10.1043   19.8522 O   0  0  0  0  0  0  0  0  0  0  0  0
    5.5057    7.1196   21.1155 C   0  0  0  0  0  0  0  0  0  0  0  0
    7.0367   11.0229   21.9948 O   0  0  0  0  0  0  0  0  0  0  0  0
  1  8  4  0
  1 12  4  0
  2  9  1  0
  2 11  4  0
  2 25  4  0
  3 12  4  0
  3 14  1  0
  3 23  4  0
  4 13  4  0
  4 21  4  0
  4 24  1  0
  5  8  4  0
  5 23  4  0
  6 18  2  0
  7 15  4  0
  7 16  1  0
  7 27  4  0
  8 18  1  0
 10 18  1  0
 10 20  1  0
 11 15  4  0
 11 26  1  0
 13 22  4  0
 16 19  1  0
 16 20  2  0
 17 19  4  0
 17 21  4  0
 19 22  4  0
 20 28  1  0
 25 27  4  0
M  END
$$$$

 Created by Python create_sdf_string function

 28 30  0  0  0  0  0  0  0  0999 V2000
   11.4592   11.2893   18.7941 C   0  0  0  0  0  0  0  0  0  0  0  0
    3.4202    7.9009   20.3866 C   0  0  0  0  0  0  0  0  0  0  0  0
   13.5280   10.3522   19.3586 C   0  0  0  0  0  0  0  0  0  0  0  0
    9.6923    5.6468   22.7891 C   0  0  0  0  0  0  0  0  0  0  0  0
   11.7756   10.2554   20.8841 N   0  0  0  0  0  0  0  0  0  0  0  0
    8.9876   11.9370   19.8757 O   0  0  0  0  0  0  0  0  0  0  0  0
    6.0167    8.4478   21.1089 C   0  0  0  0  0  0  0  0  0  0  0  0
   11.0002   10.8890   20.0262 C   0  0  0  0  0  0  0  0  0  0  0  0
    2.1721    7.7393   20.0315 O   0  0  0  0  0  0  0  0  0  0  0  0
    9.1107   10.3880   21.3769 N   0  0  0  0  0  0  0  0  0  0  0  0
    3.9102    9.2008   20.3124 C   0  0  0  0  0  0  0  0  0  0  0  0
   12.7292   10.9960   18.4597 C   0  0  0  0  0  0  0  0  0  0  0  0
    9.3798    6.6793   23.6625 C   0  0  0  0  0  0  0  0  0  0  0  0
   14.7425   10.0739   19.0802 O   0  0  0  0  0  0  0  0  0  0  0  0
    5.1894    9.4673   20.7118 C   0  0  0  0  0  0  0  0  0  0  0  0
    7.3773    8.8224   21.4870 C   0  0  0  0  0  0  0  0  0  0  0  0
    8.4391    6.6439   21.0235 C   0  0  0  0  0  0  0  0  0  0  0  0
    9.6494   11.1353   20.4167 C   0  0  0  0  0  0  0  0  0  0  0  0
    8.1431    7.6829   21.9046 C   0  0  0  0  0  0  0  0  0  0  0  0
    7.7796   10.1314   21.5115 N   0  0  0  0  0  0  0  0  0  0  0  0
    9.2768    5.6183   21.4437 C   0  0  0  0  0  0  0  0  0  0  0  0
    8.6315    7.7322   23.1768 C   0  0  0  0  0  0  0  0  0  0  0  0
   13.0537    9.9821   20.5781 C   0  0  0  0  0  0  0  0  0  0  0  0
   10.3850    4.6575   23.2386 O   0  0  0  0  0  0  0  0  0  0  0  0
    4.2069    6.8450   20.7994 C   0  0  0  0  0  0  0  0  0  0  0  0
    3.0726   10.1043   19.8522 O   0  0  0  0  0  0  0  0  0  0  0  0
    5.5057    7.1196   21.1155 C   0  0  0  0  0  0  0  0  0  0  0  0
    7.0367   11.0229   21.9948 O   0  0  0  0  0  0  0  0  0  0  0  0
  1  8  4  0
  1 12  4  0
  2  9  1  0
  2 11  4  0
  2 25  4  0
  3 12  4  0
  3 14  1  0
  3 23  4  0
  4 13  4  0
  4 21  4  0
  4 24  1  0
  5  8  4  0
  5 23  4  0
  6 18  2  0
  7 15  4  0
  7 16  1  0
  7 27  4  0
  8 18  1  0
 10 18  1  0
 10 20  1  0
 11 15  4  0
 11 26  1  0
 13 22  4  0
 16 19  1  0
 16 20  2  0
 17 19  4  0
 17 21  4  0
 19 22  4  0
 20 28  1  0
 25 27  4  0
M  END
$$$$

 Created by Python create_sdf_string function

 28 30  0  0  0  0  0  0  0  0999 V2000
   11.4592   11.2893   18.7941 C   0  0  0  0  0  0  0  0  0  0  0  0
    3.4202    7.9009   20.3866 C   0  0  0  0  0  0  0  0  0  0  0  0
   13.5280   10.3522   19.3586 C   0  0  0  0  0  0  0  0  0  0  0  0
    9.6923    5.6468   22.7891 C   0  0  0  0  0  0  0  0  0  0  0  0
   11.7756   10.2554   20.8841 N   0  0  0  0  0  0  0  0  0  0  0  0
    8.9876   11.9370   19.8757 O   0  0  0  0  0  0  0  0  0  0  0  0
    6.0167    8.4478   21.1089 C   0  0  0  0  0  0  0  0  0  0  0  0
   11.0002   10.8890   20.0262 C   0  0  0  0  0  0  0  0  0  0  0  0
    2.1721    7.7393   20.0315 O   0  0  0  0  0  0  0  0  0  0  0  0
    9.1107   10.3880   21.3769 N   0  0  0  0  0  0  0  0  0  0  0  0
    3.9102    9.2008   20.3124 C   0  0  0  0  0  0  0  0  0  0  0  0
   12.7292   10.9960   18.4597 C   0  0  0  0  0  0  0  0  0  0  0  0
    9.3798    6.6793   23.6625 C   0  0  0  0  0  0  0  0  0  0  0  0
   14.7425   10.0739   19.0802 O   0  0  0  0  0  0  0  0  0  0  0  0
    5.1894    9.4673   20.7118 C   0  0  0  0  0  0  0  0  0  0  0  0
    7.3773    8.8224   21.4870 C   0  0  0  0  0  0  0  0  0  0  0  0
    8.4391    6.6439   21.0235 C   0  0  0  0  0  0  0  0  0  0  0  0
    9.6494   11.1353   20.4167 C   0  0  0  0  0  0  0  0  0  0  0  0
    8.1431    7.6829   21.9046 C   0  0  0  0  0  0  0  0  0  0  0  0
    7.7796   10.1314   21.5115 N   0  0  0  0  0  0  0  0  0  0  0  0
    9.2768    5.6183   21.4437 C   0  0  0  0  0  0  0  0  0  0  0  0
    8.6315    7.7322   23.1768 C   0  0  0  0  0  0  0  0  0  0  0  0
   13.0537    9.9821   20.5781 C   0  0  0  0  0  0  0  0  0  0  0  0
   10.3850    4.6575   23.2386 O   0  0  0  0  0  0  0  0  0  0  0  0
    4.2069    6.8450   20.7994 C   0  0  0  0  0  0  0  0  0  0  0  0
    3.0726   10.1043   19.8522 O   0  0  0  0  0  0  0  0  0  0  0  0
    5.5057    7.1196   21.1155 C   0  0  0  0  0  0  0  0  0  0  0  0
    7.0367   11.0229   21.9948 O   0  0  0  0  0  0  0  0  0  0  0  0
  1  8  4  0
  1 12  4  0
  2  9  1  0
  2 11  4  0
  2 25  4  0
  3 12  4  0
  3 14  1  0
  3 23  4  0
  4 13  4  0
  4 21  4  0
  4 24  1  0
  5  8  4  0
  5 23  4  0
  6 18  2  0
  7 15  4  0
  7 16  1  0
  7 27  4  0
  8 18  1  0
 10 18  1  0
 10 20  1  0
 11 15  4  0
 11 26  1  0
 13 22  4  0
 16 19  1  0
 16 20  2  0
 17 19  4  0
 17 21  4  0
 19 22  4  0
 20 28  1  0
 25 27  4  0
M  END
$$$$

 Created by Python create_sdf_string function

 28 30  0  0  0  0  0  0  0  0999 V2000
   11.4592   11.2893   18.7941 C   0  0  0  0  0  0  0  0  0  0  0  0
    3.4202    7.9009   20.3866 C   0  0  0  0  0  0  0  0  0  0  0  0
   13.5280   10.3522   19.3586 C   0  0  0  0  0  0  0  0  0  0  0  0
    9.6923    5.6468   22.7891 C   0  0  0  0  0  0  0  0  0  0  0  0
   11.7756   10.2554   20.8841 N   0  0  0  0  0  0  0  0  0  0  0  0
    8.9876   11.9370   19.8757 O   0  0  0  0  0  0  0  0  0  0  0  0
    6.0167    8.4478   21.1089 C   0  0  0  0  0  0  0  0  0  0  0  0
   11.0002   10.8890   20.0262 C   0  0  0  0  0  0  0  0  0  0  0  0
    2.1721    7.7393   20.0315 O   0  0  0  0  0  0  0  0  0  0  0  0
    9.1107   10.3880   21.3769 N   0  0  0  0  0  0  0  0  0  0  0  0
    3.9102    9.2008   20.3124 C   0  0  0  0  0  0  0  0  0  0  0  0
   12.7292   10.9960   18.4597 C   0  0  0  0  0  0  0  0  0  0  0  0
    9.3798    6.6793   23.6625 C   0  0  0  0  0  0  0  0  0  0  0  0
   14.7425   10.0739   19.0802 O   0  0  0  0  0  0  0  0  0  0  0  0
    5.1894    9.4673   20.7118 C   0  0  0  0  0  0  0  0  0  0  0  0
    7.3773    8.8224   21.4870 C   0  0  0  0  0  0  0  0  0  0  0  0
    8.4391    6.6439   21.0235 C   0  0  0  0  0  0  0  0  0  0  0  0
    9.6494   11.1353   20.4167 C   0  0  0  0  0  0  0  0  0  0  0  0
    8.1431    7.6829   21.9046 C   0  0  0  0  0  0  0  0  0  0  0  0
    7.7796   10.1314   21.5115 N   0  0  0  0  0  0  0  0  0  0  0  0
    9.2768    5.6183   21.4437 C   0  0  0  0  0  0  0  0  0  0  0  0
    8.6315    7.7322   23.1768 C   0  0  0  0  0  0  0  0  0  0  0  0
   13.0537    9.9821   20.5781 C   0  0  0  0  0  0  0  0  0  0  0  0
   10.3850    4.6575   23.2386 O   0  0  0  0  0  0  0  0  0  0  0  0
    4.2069    6.8450   20.7994 C   0  0  0  0  0  0  0  0  0  0  0  0
    3.0726   10.1043   19.8522 O   0  0  0  0  0  0  0  0  0  0  0  0
    5.5057    7.1196   21.1155 C   0  0  0  0  0  0  0  0  0  0  0  0
    7.0367   11.0229   21.9948 O   0  0  0  0  0  0  0  0  0  0  0  0
  1  8  4  0
  1 12  4  0
  2  9  1  0
  2 11  4  0
  2 25  4  0
  3 12  4  0
  3 14  1  0
  3 23  4  0
  4 13  4  0
  4 21  4  0
  4 24  1  0
  5  8  4  0
  5 23  4  0
  6 18  2  0
  7 15  4  0
  7 16  1  0
  7 27  4  0
  8 18  1  0
 10 18  1  0
 10 20  1  0
 11 15  4  0
 11 26  1  0
 13 22  4  0
 16 19  1  0
 16 20  2  0
 17 19  4  0
 17 21  4  0
 19 22  4  0
 20 28  1  0
 25 27  4  0
M  END
$$$$

 Created by Python create_sdf_string function

 28 30  0  0  0  0  0  0  0  0999 V2000
   11.4592   11.2893   18.7941 C   0  0  0  0  0  0  0  0  0  0  0  0
    3.4202    7.9009   20.3866 C   0  0  0  0  0  0  0  0  0  0  0  0
   13.5280   10.3522   19.3586 C   0  0  0  0  0  0  0  0  0  0  0  0
    9.6923    5.6468   22.7891 C   0  0  0  0  0  0  0  0  0  0  0  0
   11.7756   10.2554   20.8841 N   0  0  0  0  0  0  0  0  0  0  0  0
    8.9876   11.9370   19.8757 O   0  0  0  0  0  0  0  0  0  0  0  0
    6.0167    8.4478   21.1089 C   0  0  0  0  0  0  0  0  0  0  0  0
   11.0002   10.8890   20.0262 C   0  0  0  0  0  0  0  0  0  0  0  0
    2.1721    7.7393   20.0315 O   0  0  0  0  0  0  0  0  0  0  0  0
    9.1107   10.3880   21.3769 N   0  0  0  0  0  0  0  0  0  0  0  0
    3.9102    9.2008   20.3124 C   0  0  0  0  0  0  0  0  0  0  0  0
   12.7292   10.9960   18.4597 C   0  0  0  0  0  0  0  0  0  0  0  0
    9.3798    6.6793   23.6625 C   0  0  0  0  0  0  0  0  0  0  0  0
   14.7425   10.0739   19.0802 O   0  0  0  0  0  0  0  0  0  0  0  0
    5.1894    9.4673   20.7118 C   0  0  0  0  0  0  0  0  0  0  0  0
    7.3773    8.8224   21.4870 C   0  0  0  0  0  0  0  0  0  0  0  0
    8.4391    6.6439   21.0235 C   0  0  0  0  0  0  0  0  0  0  0  0
    9.6494   11.1353   20.4167 C   0  0  0  0  0  0  0  0  0  0  0  0
    8.1431    7.6829   21.9046 C   0  0  0  0  0  0  0  0  0  0  0  0
    7.7796   10.1314   21.5115 N   0  0  0  0  0  0  0  0  0  0  0  0
    9.2768    5.6183   21.4437 C   0  0  0  0  0  0  0  0  0  0  0  0
    8.6315    7.7322   23.1768 C   0  0  0  0  0  0  0  0  0  0  0  0
   13.0537    9.9821   20.5781 C   0  0  0  0  0  0  0  0  0  0  0  0
   10.3850    4.6575   23.2386 O   0  0  0  0  0  0  0  0  0  0  0  0
    4.2069    6.8450   20.7994 C   0  0  0  0  0  0  0  0  0  0  0  0
    3.0726   10.1043   19.8522 O   0  0  0  0  0  0  0  0  0  0  0  0
    5.5057    7.1196   21.1155 C   0  0  0  0  0  0  0  0  0  0  0  0
    7.0367   11.0229   21.9948 O   0  0  0  0  0  0  0  0  0  0  0  0
  1  8  4  0
  1 12  4  0
  2  9  1  0
  2 11  4  0
  2 25  4  0
  3 12  4  0
  3 14  1  0
  3 23  4  0
  4 13  4  0
  4 21  4  0
  4 24  1  0
  5  8  4  0
  5 23  4  0
  6 18  2  0
  7 15  4  0
  7 16  1  0
  7 27  4  0
  8 18  1  0
 10 18  1  0
 10 20  1  0
 11 15  4  0
 11 26  1  0
 13 22  4  0
 16 19  1  0
 16 20  2  0
 17 19  4  0
 17 21  4  0
 19 22  4  0
 20 28  1  0
 25 27  4  0
M  END
$$$$

 Created by Python create_sdf_string function

 28 30  0  0  0  0  0  0  0  0999 V2000
   11.4592   11.2893   18.7941 C   0  0  0  0  0  0  0  0  0  0  0  0
    3.4202    7.9009   20.3866 C   0  0  0  0  0  0  0  0  0  0  0  0
   13.5280   10.3522   19.3586 C   0  0  0  0  0  0  0  0  0  0  0  0
    9.6923    5.6468   22.7891 C   0  0  0  0  0  0  0  0  0  0  0  0
   11.7756   10.2554   20.8841 N   0  0  0  0  0  0  0  0  0  0  0  0
    8.9876   11.9370   19.8757 O   0  0  0  0  0  0  0  0  0  0  0  0
    6.0167    8.4478   21.1089 C   0  0  0  0  0  0  0  0  0  0  0  0
   11.0002   10.8890   20.0262 C   0  0  0  0  0  0  0  0  0  0  0  0
    2.1721    7.7393   20.0315 O   0  0  0  0  0  0  0  0  0  0  0  0
    9.1107   10.3880   21.3769 N   0  0  0  0  0  0  0  0  0  0  0  0
    3.9102    9.2008   20.3124 C   0  0  0  0  0  0  0  0  0  0  0  0
   12.7292   10.9960   18.4597 C   0  0  0  0  0  0  0  0  0  0  0  0
    9.3798    6.6793   23.6625 C   0  0  0  0  0  0  0  0  0  0  0  0
   14.7425   10.0739   19.0802 O   0  0  0  0  0  0  0  0  0  0  0  0
    5.1894    9.4673   20.7118 C   0  0  0  0  0  0  0  0  0  0  0  0
    7.3773    8.8224   21.4870 C   0  0  0  0  0  0  0  0  0  0  0  0
    8.4391    6.6439   21.0235 C   0  0  0  0  0  0  0  0  0  0  0  0
    9.6494   11.1353   20.4167 C   0  0  0  0  0  0  0  0  0  0  0  0
    8.1431    7.6829   21.9046 C   0  0  0  0  0  0  0  0  0  0  0  0
    7.7796   10.1314   21.5115 N   0  0  0  0  0  0  0  0  0  0  0  0
    9.2768    5.6183   21.4437 C   0  0  0  0  0  0  0  0  0  0  0  0
    8.6315    7.7322   23.1768 C   0  0  0  0  0  0  0  0  0  0  0  0
   13.0537    9.9821   20.5781 C   0  0  0  0  0  0  0  0  0  0  0  0
   10.3850    4.6575   23.2386 O   0  0  0  0  0  0  0  0  0  0  0  0
    4.2069    6.8450   20.7994 C   0  0  0  0  0  0  0  0  0  0  0  0
    3.0726   10.1043   19.8522 O   0  0  0  0  0  0  0  0  0  0  0  0
    5.5057    7.1196   21.1155 C   0  0  0  0  0  0  0  0  0  0  0  0
    7.0367   11.0229   21.9948 O   0  0  0  0  0  0  0  0  0  0  0  0
  1  8  4  0
  1 12  4  0
  2  9  1  0
  2 11  4  0
  2 25  4  0
  3 12  4  0
  3 14  1  0
  3 23  4  0
  4 13  4  0
  4 21  4  0
  4 24  1  0
  5  8  4  0
  5 23  4  0
  6 18  2  0
  7 15  4  0
  7 16  1  0
  7 27  4  0
  8 18  1  0
 10 18  1  0
 10 20  1  0
 11 15  4  0
 11 26  1  0
 13 22  4  0
 16 19  1  0
 16 20  2  0
 17 19  4  0
 17 21  4  0
 19 22  4  0
 20 28  1  0
 25 27  4  0
M  END
$$$$

 Created by Python create_sdf_string function

 28 30  0  0  0  0  0  0  0  0999 V2000
   11.4592   11.2893   18.7941 C   0  0  0  0  0  0  0  0  0  0  0  0
    3.4202    7.9009   20.3866 C   0  0  0  0  0  0  0  0  0  0  0  0
   13.5280   10.3522   19.3586 C   0  0  0  0  0  0  0  0  0  0  0  0
    9.6923    5.6468   22.7891 C   0  0  0  0  0  0  0  0  0  0  0  0
   11.7756   10.2554   20.8841 N   0  0  0  0  0  0  0  0  0  0  0  0
    8.9876   11.9370   19.8757 O   0  0  0  0  0  0  0  0  0  0  0  0
    6.0167    8.4478   21.1089 C   0  0  0  0  0  0  0  0  0  0  0  0
   11.0002   10.8890   20.0262 C   0  0  0  0  0  0  0  0  0  0  0  0
    2.1721    7.7393   20.0315 O   0  0  0  0  0  0  0  0  0  0  0  0
    9.1107   10.3880   21.3769 N   0  0  0  0  0  0  0  0  0  0  0  0
    3.9102    9.2008   20.3124 C   0  0  0  0  0  0  0  0  0  0  0  0
   12.7292   10.9960   18.4597 C   0  0  0  0  0  0  0  0  0  0  0  0
    9.3798    6.6793   23.6625 C   0  0  0  0  0  0  0  0  0  0  0  0
   14.7425   10.0739   19.0802 O   0  0  0  0  0  0  0  0  0  0  0  0
    5.1894    9.4673   20.7118 C   0  0  0  0  0  0  0  0  0  0  0  0
    7.3773    8.8224   21.4870 C   0  0  0  0  0  0  0  0  0  0  0  0
    8.4391    6.6439   21.0235 C   0  0  0  0  0  0  0  0  0  0  0  0
    9.6494   11.1353   20.4167 C   0  0  0  0  0  0  0  0  0  0  0  0
    8.1431    7.6829   21.9046 C   0  0  0  0  0  0  0  0  0  0  0  0
    7.7796   10.1314   21.5115 N   0  0  0  0  0  0  0  0  0  0  0  0
    9.2768    5.6183   21.4437 C   0  0  0  0  0  0  0  0  0  0  0  0
    8.6315    7.7322   23.1768 C   0  0  0  0  0  0  0  0  0  0  0  0
   13.0537    9.9821   20.5781 C   0  0  0  0  0  0  0  0  0  0  0  0
   10.3850    4.6575   23.2386 O   0  0  0  0  0  0  0  0  0  0  0  0
    4.2069    6.8450   20.7994 C   0  0  0  0  0  0  0  0  0  0  0  0
    3.0726   10.1043   19.8522 O   0  0  0  0  0  0  0  0  0  0  0  0
    5.5057    7.1196   21.1155 C   0  0  0  0  0  0  0  0  0  0  0  0
    7.0367   11.0229   21.9948 O   0  0  0  0  0  0  0  0  0  0  0  0
  1  8  4  0
  1 12  4  0
  2  9  1  0
  2 11  4  0
  2 25  4  0
  3 12  4  0
  3 14  1  0
  3 23  4  0
  4 13  4  0
  4 21  4  0
  4 24  1  0
  5  8  4  0
  5 23  4  0
  6 18  2  0
  7 15  4  0
  7 16  1  0
  7 27  4  0
  8 18  1  0
 10 18  1  0
 10 20  1  0
 11 15  4  0
 11 26  1  0
 13 22  4  0
 16 19  1  0
 16 20  2  0
 17 19  4  0
 17 21  4  0
 19 22  4  0
 20 28  1  0
 25 27  4  0
M  END
$$$$

 Created by Python create_sdf_string function

 28 30  0  0  0  0  0  0  0  0999 V2000
   11.4592   11.2893   18.7941 C   0  0  0  0  0  0  0  0  0  0  0  0
    3.4202    7.9009   20.3866 C   0  0  0  0  0  0  0  0  0  0  0  0
   13.5280   10.3522   19.3586 C   0  0  0  0  0  0  0  0  0  0  0  0
    9.6923    5.6468   22.7891 C   0  0  0  0  0  0  0  0  0  0  0  0
   11.7756   10.2554   20.8841 N   0  0  0  0  0  0  0  0  0  0  0  0
    8.9876   11.9370   19.8757 O   0  0  0  0  0  0  0  0  0  0  0  0
    6.0167    8.4478   21.1089 C   0  0  0  0  0  0  0  0  0  0  0  0
   11.0002   10.8890   20.0262 C   0  0  0  0  0  0  0  0  0  0  0  0
    2.1721    7.7393   20.0315 O   0  0  0  0  0  0  0  0  0  0  0  0
    9.1107   10.3880   21.3769 N   0  0  0  0  0  0  0  0  0  0  0  0
    3.9102    9.2008   20.3124 C   0  0  0  0  0  0  0  0  0  0  0  0
   12.7292   10.9960   18.4597 C   0  0  0  0  0  0  0  0  0  0  0  0
    9.3798    6.6793   23.6625 C   0  0  0  0  0  0  0  0  0  0  0  0
   14.7425   10.0739   19.0802 O   0  0  0  0  0  0  0  0  0  0  0  0
    5.1894    9.4673   20.7118 C   0  0  0  0  0  0  0  0  0  0  0  0
    7.3773    8.8224   21.4870 C   0  0  0  0  0  0  0  0  0  0  0  0
    8.4391    6.6439   21.0235 C   0  0  0  0  0  0  0  0  0  0  0  0
    9.6494   11.1353   20.4167 C   0  0  0  0  0  0  0  0  0  0  0  0
    8.1431    7.6829   21.9046 C   0  0  0  0  0  0  0  0  0  0  0  0
    7.7796   10.1314   21.5115 N   0  0  0  0  0  0  0  0  0  0  0  0
    9.2768    5.6183   21.4437 C   0  0  0  0  0  0  0  0  0  0  0  0
    8.6315    7.7322   23.1768 C   0  0  0  0  0  0  0  0  0  0  0  0
   13.0537    9.9821   20.5781 C   0  0  0  0  0  0  0  0  0  0  0  0
   10.3850    4.6575   23.2386 O   0  0  0  0  0  0  0  0  0  0  0  0
    4.2069    6.8450   20.7994 C   0  0  0  0  0  0  0  0  0  0  0  0
    3.0726   10.1043   19.8522 O   0  0  0  0  0  0  0  0  0  0  0  0
    5.5057    7.1196   21.1155 C   0  0  0  0  0  0  0  0  0  0  0  0
    7.0367   11.0229   21.9948 O   0  0  0  0  0  0  0  0  0  0  0  0
  1  8  4  0
  1 12  4  0
  2  9  1  0
  2 11  4  0
  2 25  4  0
  3 12  4  0
  3 14  1  0
  3 23  4  0
  4 13  4  0
  4 21  4  0
  4 24  1  0
  5  8  4  0
  5 23  4  0
  6 18  2  0
  7 15  4  0
  7 16  1  0
  7 27  4  0
  8 18  1  0
 10 18  1  0
 10 20  1  0
 11 15  4  0
 11 26  1  0
 13 22  4  0
 16 19  1  0
 16 20  2  0
 17 19  4  0
 17 21  4  0
 19 22  4  0
 20 28  1  0
 25 27  4  0
M  END
$$$$

 Created by Python create_sdf_string function

 28 30  0  0  0  0  0  0  0  0999 V2000
   11.4592   11.2893   18.7941 C   0  0  0  0  0  0  0  0  0  0  0  0
    3.4202    7.9009   20.3866 C   0  0  0  0  0  0  0  0  0  0  0  0
   13.5280   10.3522   19.3586 C   0  0  0  0  0  0  0  0  0  0  0  0
    9.6923    5.6468   22.7891 C   0  0  0  0  0  0  0  0  0  0  0  0
   11.7756   10.2554   20.8841 N   0  0  0  0  0  0  0  0  0  0  0  0
    8.9876   11.9370   19.8757 O   0  0  0  0  0  0  0  0  0  0  0  0
    6.0167    8.4478   21.1089 C   0  0  0  0  0  0  0  0  0  0  0  0
   11.0002   10.8890   20.0262 C   0  0  0  0  0  0  0  0  0  0  0  0
    2.1721    7.7393   20.0315 O   0  0  0  0  0  0  0  0  0  0  0  0
    9.1107   10.3880   21.3769 N   0  0  0  0  0  0  0  0  0  0  0  0
    3.9102    9.2008   20.3124 C   0  0  0  0  0  0  0  0  0  0  0  0
   12.7292   10.9960   18.4597 C   0  0  0  0  0  0  0  0  0  0  0  0
    9.3798    6.6793   23.6625 C   0  0  0  0  0  0  0  0  0  0  0  0
   14.7425   10.0739   19.0802 O   0  0  0  0  0  0  0  0  0  0  0  0
    5.1894    9.4673   20.7118 C   0  0  0  0  0  0  0  0  0  0  0  0
    7.3773    8.8224   21.4870 C   0  0  0  0  0  0  0  0  0  0  0  0
    8.4391    6.6439   21.0235 C   0  0  0  0  0  0  0  0  0  0  0  0
    9.6494   11.1353   20.4167 C   0  0  0  0  0  0  0  0  0  0  0  0
    8.1431    7.6829   21.9046 C   0  0  0  0  0  0  0  0  0  0  0  0
    7.7796   10.1314   21.5115 N   0  0  0  0  0  0  0  0  0  0  0  0
    9.2768    5.6183   21.4437 C   0  0  0  0  0  0  0  0  0  0  0  0
    8.6315    7.7322   23.1768 C   0  0  0  0  0  0  0  0  0  0  0  0
   13.0537    9.9821   20.5781 C   0  0  0  0  0  0  0  0  0  0  0  0
   10.3850    4.6575   23.2386 O   0  0  0  0  0  0  0  0  0  0  0  0
    4.2069    6.8450   20.7994 C   0  0  0  0  0  0  0  0  0  0  0  0
    3.0726   10.1043   19.8522 O   0  0  0  0  0  0  0  0  0  0  0  0
    5.5057    7.1196   21.1155 C   0  0  0  0  0  0  0  0  0  0  0  0
    7.0367   11.0229   21.9948 O   0  0  0  0  0  0  0  0  0  0  0  0
  1  8  4  0
  1 12  4  0
  2  9  1  0
  2 11  4  0
  2 25  4  0
  3 12  4  0
  3 14  1  0
  3 23  4  0
  4 13  4  0
  4 21  4  0
  4 24  1  0
  5  8  4  0
  5 23  4  0
  6 18  2  0
  7 15  4  0
  7 16  1  0
  7 27  4  0
  8 18  1  0
 10 18  1  0
 10 20  1  0
 11 15  4  0
 11 26  1  0
 13 22  4  0
 16 19  1  0
 16 20  2  0
 17 19  4  0
 17 21  4  0
 19 22  4  0
 20 28  1  0
 25 27  4  0
M  END
$$$$

 Created by Python create_sdf_string function

 28 30  0  0  0  0  0  0  0  0999 V2000
   11.4592   11.2893   18.7941 C   0  0  0  0  0  0  0  0  0  0  0  0
    3.4202    7.9009   20.3866 C   0  0  0  0  0  0  0  0  0  0  0  0
   13.5280   10.3522   19.3586 C   0  0  0  0  0  0  0  0  0  0  0  0
    9.6923    5.6468   22.7891 C   0  0  0  0  0  0  0  0  0  0  0  0
   11.7756   10.2554   20.8841 N   0  0  0  0  0  0  0  0  0  0  0  0
    8.9876   11.9370   19.8757 O   0  0  0  0  0  0  0  0  0  0  0  0
    6.0167    8.4478   21.1089 C   0  0  0  0  0  0  0  0  0  0  0  0
   11.0002   10.8890   20.0262 C   0  0  0  0  0  0  0  0  0  0  0  0
    2.1721    7.7393   20.0315 O   0  0  0  0  0  0  0  0  0  0  0  0
    9.1107   10.3880   21.3769 N   0  0  0  0  0  0  0  0  0  0  0  0
    3.9102    9.2008   20.3124 C   0  0  0  0  0  0  0  0  0  0  0  0
   12.7292   10.9960   18.4597 C   0  0  0  0  0  0  0  0  0  0  0  0
    9.3798    6.6793   23.6625 C   0  0  0  0  0  0  0  0  0  0  0  0
   14.7425   10.0739   19.0802 O   0  0  0  0  0  0  0  0  0  0  0  0
    5.1894    9.4673   20.7118 C   0  0  0  0  0  0  0  0  0  0  0  0
    7.3773    8.8224   21.4870 C   0  0  0  0  0  0  0  0  0  0  0  0
    8.4391    6.6439   21.0235 C   0  0  0  0  0  0  0  0  0  0  0  0
    9.6494   11.1353   20.4167 C   0  0  0  0  0  0  0  0  0  0  0  0
    8.1431    7.6829   21.9046 C   0  0  0  0  0  0  0  0  0  0  0  0
    7.7796   10.1314   21.5115 N   0  0  0  0  0  0  0  0  0  0  0  0
    9.2768    5.6183   21.4437 C   0  0  0  0  0  0  0  0  0  0  0  0
    8.6315    7.7322   23.1768 C   0  0  0  0  0  0  0  0  0  0  0  0
   13.0537    9.9821   20.5781 C   0  0  0  0  0  0  0  0  0  0  0  0
   10.3850    4.6575   23.2386 O   0  0  0  0  0  0  0  0  0  0  0  0
    4.2069    6.8450   20.7994 C   0  0  0  0  0  0  0  0  0  0  0  0
    3.0726   10.1043   19.8522 O   0  0  0  0  0  0  0  0  0  0  0  0
    5.5057    7.1196   21.1155 C   0  0  0  0  0  0  0  0  0  0  0  0
    7.0367   11.0229   21.9948 O   0  0  0  0  0  0  0  0  0  0  0  0
  1  8  4  0
  1 12  4  0
  2  9  1  0
  2 11  4  0
  2 25  4  0
  3 12  4  0
  3 14  1  0
  3 23  4  0
  4 13  4  0
  4 21  4  0
  4 24  1  0
  5  8  4  0
  5 23  4  0
  6 18  2  0
  7 15  4  0
  7 16  1  0
  7 27  4  0
  8 18  1  0
 10 18  1  0
 10 20  1  0
 11 15  4  0
 11 26  1  0
 13 22  4  0
 16 19  1  0
 16 20  2  0
 17 19  4  0
 17 21  4  0
 19 22  4  0
 20 28  1  0
 25 27  4  0
M  END
$$$$

 Created by Python create_sdf_string function

 28 30  0  0  0  0  0  0  0  0999 V2000
   11.4592   11.2893   18.7941 C   0  0  0  0  0  0  0  0  0  0  0  0
    3.4202    7.9009   20.3866 C   0  0  0  0  0  0  0  0  0  0  0  0
   13.5280   10.3522   19.3586 C   0  0  0  0  0  0  0  0  0  0  0  0
    9.6923    5.6468   22.7891 C   0  0  0  0  0  0  0  0  0  0  0  0
   11.7756   10.2554   20.8841 N   0  0  0  0  0  0  0  0  0  0  0  0
    8.9876   11.9370   19.8757 O   0  0  0  0  0  0  0  0  0  0  0  0
    6.0167    8.4478   21.1089 C   0  0  0  0  0  0  0  0  0  0  0  0
   11.0002   10.8890   20.0262 C   0  0  0  0  0  0  0  0  0  0  0  0
    2.1721    7.7393   20.0315 O   0  0  0  0  0  0  0  0  0  0  0  0
    9.1107   10.3880   21.3769 N   0  0  0  0  0  0  0  0  0  0  0  0
    3.9102    9.2008   20.3124 C   0  0  0  0  0  0  0  0  0  0  0  0
   12.7292   10.9960   18.4597 C   0  0  0  0  0  0  0  0  0  0  0  0
    9.3798    6.6793   23.6625 C   0  0  0  0  0  0  0  0  0  0  0  0
   14.7425   10.0739   19.0802 O   0  0  0  0  0  0  0  0  0  0  0  0
    5.1894    9.4673   20.7118 C   0  0  0  0  0  0  0  0  0  0  0  0
    7.3773    8.8224   21.4870 C   0  0  0  0  0  0  0  0  0  0  0  0
    8.4391    6.6439   21.0235 C   0  0  0  0  0  0  0  0  0  0  0  0
    9.6494   11.1353   20.4167 C   0  0  0  0  0  0  0  0  0  0  0  0
    8.1431    7.6829   21.9046 C   0  0  0  0  0  0  0  0  0  0  0  0
    7.7796   10.1314   21.5115 N   0  0  0  0  0  0  0  0  0  0  0  0
    9.2768    5.6183   21.4437 C   0  0  0  0  0  0  0  0  0  0  0  0
    8.6315    7.7322   23.1768 C   0  0  0  0  0  0  0  0  0  0  0  0
   13.0537    9.9821   20.5781 C   0  0  0  0  0  0  0  0  0  0  0  0
   10.3850    4.6575   23.2386 O   0  0  0  0  0  0  0  0  0  0  0  0
    4.2069    6.8450   20.7994 C   0  0  0  0  0  0  0  0  0  0  0  0
    3.0726   10.1043   19.8522 O   0  0  0  0  0  0  0  0  0  0  0  0
    5.5057    7.1196   21.1155 C   0  0  0  0  0  0  0  0  0  0  0  0
    7.0367   11.0229   21.9948 O   0  0  0  0  0  0  0  0  0  0  0  0
  1  8  4  0
  1 12  4  0
  2  9  1  0
  2 11  4  0
  2 25  4  0
  3 12  4  0
  3 14  1  0
  3 23  4  0
  4 13  4  0
  4 21  4  0
  4 24  1  0
  5  8  4  0
  5 23  4  0
  6 18  2  0
  7 15  4  0
  7 16  1  0
  7 27  4  0
  8 18  1  0
 10 18  1  0
 10 20  1  0
 11 15  4  0
 11 26  1  0
 13 22  4  0
 16 19  1  0
 16 20  2  0
 17 19  4  0
 17 21  4  0
 19 22  4  0
 20 28  1  0
 25 27  4  0
M  END
$$$$

 Created by Python create_sdf_string function

 28 30  0  0  0  0  0  0  0  0999 V2000
   11.4592   11.2893   18.7941 C   0  0  0  0  0  0  0  0  0  0  0  0
    3.4202    7.9009   20.3866 C   0  0  0  0  0  0  0  0  0  0  0  0
   13.5280   10.3522   19.3586 C   0  0  0  0  0  0  0  0  0  0  0  0
    9.6923    5.6468   22.7891 C   0  0  0  0  0  0  0  0  0  0  0  0
   11.7756   10.2554   20.8841 N   0  0  0  0  0  0  0  0  0  0  0  0
    8.9876   11.9370   19.8757 O   0  0  0  0  0  0  0  0  0  0  0  0
    6.0167    8.4478   21.1089 C   0  0  0  0  0  0  0  0  0  0  0  0
   11.0002   10.8890   20.0262 C   0  0  0  0  0  0  0  0  0  0  0  0
    2.1721    7.7393   20.0315 O   0  0  0  0  0  0  0  0  0  0  0  0
    9.1107   10.3880   21.3769 N   0  0  0  0  0  0  0  0  0  0  0  0
    3.9102    9.2008   20.3124 C   0  0  0  0  0  0  0  0  0  0  0  0
   12.7292   10.9960   18.4597 C   0  0  0  0  0  0  0  0  0  0  0  0
    9.3798    6.6793   23.6625 C   0  0  0  0  0  0  0  0  0  0  0  0
   14.7425   10.0739   19.0802 O   0  0  0  0  0  0  0  0  0  0  0  0
    5.1894    9.4673   20.7118 C   0  0  0  0  0  0  0  0  0  0  0  0
    7.3773    8.8224   21.4870 C   0  0  0  0  0  0  0  0  0  0  0  0
    8.4391    6.6439   21.0235 C   0  0  0  0  0  0  0  0  0  0  0  0
    9.6494   11.1353   20.4167 C   0  0  0  0  0  0  0  0  0  0  0  0
    8.1431    7.6829   21.9046 C   0  0  0  0  0  0  0  0  0  0  0  0
    7.7796   10.1314   21.5115 N   0  0  0  0  0  0  0  0  0  0  0  0
    9.2768    5.6183   21.4437 C   0  0  0  0  0  0  0  0  0  0  0  0
    8.6315    7.7322   23.1768 C   0  0  0  0  0  0  0  0  0  0  0  0
   13.0537    9.9821   20.5781 C   0  0  0  0  0  0  0  0  0  0  0  0
   10.3850    4.6575   23.2386 O   0  0  0  0  0  0  0  0  0  0  0  0
    4.2069    6.8450   20.7994 C   0  0  0  0  0  0  0  0  0  0  0  0
    3.0726   10.1043   19.8522 O   0  0  0  0  0  0  0  0  0  0  0  0
    5.5057    7.1196   21.1155 C   0  0  0  0  0  0  0  0  0  0  0  0
    7.0367   11.0229   21.9948 O   0  0  0  0  0  0  0  0  0  0  0  0
  1  8  4  0
  1 12  4  0
  2  9  1  0
  2 11  4  0
  2 25  4  0
  3 12  4  0
  3 14  1  0
  3 23  4  0
  4 13  4  0
  4 21  4  0
  4 24  1  0
  5  8  4  0
  5 23  4  0
  6 18  2  0
  7 15  4  0
  7 16  1  0
  7 27  4  0
  8 18  1  0
 10 18  1  0
 10 20  1  0
 11 15  4  0
 11 26  1  0
 13 22  4  0
 16 19  1  0
 16 20  2  0
 17 19  4  0
 17 21  4  0
 19 22  4  0
 20 28  1  0
 25 27  4  0
M  END
$$$$

 Created by Python create_sdf_string function

 28 30  0  0  0  0  0  0  0  0999 V2000
   11.4592   11.2893   18.7941 C   0  0  0  0  0  0  0  0  0  0  0  0
    3.4202    7.9009   20.3866 C   0  0  0  0  0  0  0  0  0  0  0  0
   13.5280   10.3522   19.3586 C   0  0  0  0  0  0  0  0  0  0  0  0
    9.6923    5.6468   22.7891 C   0  0  0  0  0  0  0  0  0  0  0  0
   11.7756   10.2554   20.8841 N   0  0  0  0  0  0  0  0  0  0  0  0
    8.9876   11.9370   19.8757 O   0  0  0  0  0  0  0  0  0  0  0  0
    6.0167    8.4478   21.1089 C   0  0  0  0  0  0  0  0  0  0  0  0
   11.0002   10.8890   20.0262 C   0  0  0  0  0  0  0  0  0  0  0  0
    2.1721    7.7393   20.0315 O   0  0  0  0  0  0  0  0  0  0  0  0
    9.1107   10.3880   21.3769 N   0  0  0  0  0  0  0  0  0  0  0  0
    3.9102    9.2008   20.3124 C   0  0  0  0  0  0  0  0  0  0  0  0
   12.7292   10.9960   18.4597 C   0  0  0  0  0  0  0  0  0  0  0  0
    9.3798    6.6793   23.6625 C   0  0  0  0  0  0  0  0  0  0  0  0
   14.7425   10.0739   19.0802 O   0  0  0  0  0  0  0  0  0  0  0  0
    5.1894    9.4673   20.7118 C   0  0  0  0  0  0  0  0  0  0  0  0
    7.3773    8.8224   21.4870 C   0  0  0  0  0  0  0  0  0  0  0  0
    8.4391    6.6439   21.0235 C   0  0  0  0  0  0  0  0  0  0  0  0
    9.6494   11.1353   20.4167 C   0  0  0  0  0  0  0  0  0  0  0  0
    8.1431    7.6829   21.9046 C   0  0  0  0  0  0  0  0  0  0  0  0
    7.7796   10.1314   21.5115 N   0  0  0  0  0  0  0  0  0  0  0  0
    9.2768    5.6183   21.4437 C   0  0  0  0  0  0  0  0  0  0  0  0
    8.6315    7.7322   23.1768 C   0  0  0  0  0  0  0  0  0  0  0  0
   13.0537    9.9821   20.5781 C   0  0  0  0  0  0  0  0  0  0  0  0
   10.3850    4.6575   23.2386 O   0  0  0  0  0  0  0  0  0  0  0  0
    4.2069    6.8450   20.7994 C   0  0  0  0  0  0  0  0  0  0  0  0
    3.0726   10.1043   19.8522 O   0  0  0  0  0  0  0  0  0  0  0  0
    5.5057    7.1196   21.1155 C   0  0  0  0  0  0  0  0  0  0  0  0
    7.0367   11.0229   21.9948 O   0  0  0  0  0  0  0  0  0  0  0  0
  1  8  4  0
  1 12  4  0
  2  9  1  0
  2 11  4  0
  2 25  4  0
  3 12  4  0
  3 14  1  0
  3 23  4  0
  4 13  4  0
  4 21  4  0
  4 24  1  0
  5  8  4  0
  5 23  4  0
  6 18  2  0
  7 15  4  0
  7 16  1  0
  7 27  4  0
  8 18  1  0
 10 18  1  0
 10 20  1  0
 11 15  4  0
 11 26  1  0
 13 22  4  0
 16 19  1  0
 16 20  2  0
 17 19  4  0
 17 21  4  0
 19 22  4  0
 20 28  1  0
 25 27  4  0
M  END
$$$$

 Created by Python create_sdf_string function

 28 30  0  0  0  0  0  0  0  0999 V2000
   11.4592   11.2893   18.7941 C   0  0  0  0  0  0  0  0  0  0  0  0
    3.4202    7.9009   20.3866 C   0  0  0  0  0  0  0  0  0  0  0  0
   13.5280   10.3522   19.3586 C   0  0  0  0  0  0  0  0  0  0  0  0
    9.6923    5.6468   22.7891 C   0  0  0  0  0  0  0  0  0  0  0  0
   11.7756   10.2554   20.8841 N   0  0  0  0  0  0  0  0  0  0  0  0
    8.9876   11.9370   19.8757 O   0  0  0  0  0  0  0  0  0  0  0  0
    6.0167    8.4478   21.1089 C   0  0  0  0  0  0  0  0  0  0  0  0
   11.0002   10.8890   20.0262 C   0  0  0  0  0  0  0  0  0  0  0  0
    2.1721    7.7393   20.0315 O   0  0  0  0  0  0  0  0  0  0  0  0
    9.1107   10.3880   21.3769 N   0  0  0  0  0  0  0  0  0  0  0  0
    3.9102    9.2008   20.3124 C   0  0  0  0  0  0  0  0  0  0  0  0
   12.7292   10.9960   18.4597 C   0  0  0  0  0  0  0  0  0  0  0  0
    9.3798    6.6793   23.6625 C   0  0  0  0  0  0  0  0  0  0  0  0
   14.7425   10.0739   19.0802 O   0  0  0  0  0  0  0  0  0  0  0  0
    5.1894    9.4673   20.7118 C   0  0  0  0  0  0  0  0  0  0  0  0
    7.3773    8.8224   21.4870 C   0  0  0  0  0  0  0  0  0  0  0  0
    8.4391    6.6439   21.0235 C   0  0  0  0  0  0  0  0  0  0  0  0
    9.6494   11.1353   20.4167 C   0  0  0  0  0  0  0  0  0  0  0  0
    8.1431    7.6829   21.9046 C   0  0  0  0  0  0  0  0  0  0  0  0
    7.7796   10.1314   21.5115 N   0  0  0  0  0  0  0  0  0  0  0  0
    9.2768    5.6183   21.4437 C   0  0  0  0  0  0  0  0  0  0  0  0
    8.6315    7.7322   23.1768 C   0  0  0  0  0  0  0  0  0  0  0  0
   13.0537    9.9821   20.5781 C   0  0  0  0  0  0  0  0  0  0  0  0
   10.3850    4.6575   23.2386 O   0  0  0  0  0  0  0  0  0  0  0  0
    4.2069    6.8450   20.7994 C   0  0  0  0  0  0  0  0  0  0  0  0
    3.0726   10.1043   19.8522 O   0  0  0  0  0  0  0  0  0  0  0  0
    5.5057    7.1196   21.1155 C   0  0  0  0  0  0  0  0  0  0  0  0
    7.0367   11.0229   21.9948 O   0  0  0  0  0  0  0  0  0  0  0  0
  1  8  4  0
  1 12  4  0
  2  9  1  0
  2 11  4  0
  2 25  4  0
  3 12  4  0
  3 14  1  0
  3 23  4  0
  4 13  4  0
  4 21  4  0
  4 24  1  0
  5  8  4  0
  5 23  4  0
  6 18  2  0
  7 15  4  0
  7 16  1  0
  7 27  4  0
  8 18  1  0
 10 18  1  0
 10 20  1  0
 11 15  4  0
 11 26  1  0
 13 22  4  0
 16 19  1  0
 16 20  2  0
 17 19  4  0
 17 21  4  0
 19 22  4  0
 20 28  1  0
 25 27  4  0
M  END
$$$$

 Created by Python create_sdf_string function

 28 30  0  0  0  0  0  0  0  0999 V2000
   11.4592   11.2893   18.7941 C   0  0  0  0  0  0  0  0  0  0  0  0
    3.4202    7.9009   20.3866 C   0  0  0  0  0  0  0  0  0  0  0  0
   13.5280   10.3522   19.3586 C   0  0  0  0  0  0  0  0  0  0  0  0
    9.6923    5.6468   22.7891 C   0  0  0  0  0  0  0  0  0  0  0  0
   11.7756   10.2554   20.8841 N   0  0  0  0  0  0  0  0  0  0  0  0
    8.9876   11.9370   19.8757 O   0  0  0  0  0  0  0  0  0  0  0  0
    6.0167    8.4478   21.1089 C   0  0  0  0  0  0  0  0  0  0  0  0
   11.0002   10.8890   20.0262 C   0  0  0  0  0  0  0  0  0  0  0  0
    2.1721    7.7393   20.0315 O   0  0  0  0  0  0  0  0  0  0  0  0
    9.1107   10.3880   21.3769 N   0  0  0  0  0  0  0  0  0  0  0  0
    3.9102    9.2008   20.3124 C   0  0  0  0  0  0  0  0  0  0  0  0
   12.7292   10.9960   18.4597 C   0  0  0  0  0  0  0  0  0  0  0  0
    9.3798    6.6793   23.6625 C   0  0  0  0  0  0  0  0  0  0  0  0
   14.7425   10.0739   19.0802 O   0  0  0  0  0  0  0  0  0  0  0  0
    5.1894    9.4673   20.7118 C   0  0  0  0  0  0  0  0  0  0  0  0
    7.3773    8.8224   21.4870 C   0  0  0  0  0  0  0  0  0  0  0  0
    8.4391    6.6439   21.0235 C   0  0  0  0  0  0  0  0  0  0  0  0
    9.6494   11.1353   20.4167 C   0  0  0  0  0  0  0  0  0  0  0  0
    8.1431    7.6829   21.9046 C   0  0  0  0  0  0  0  0  0  0  0  0
    7.7796   10.1314   21.5115 N   0  0  0  0  0  0  0  0  0  0  0  0
    9.2768    5.6183   21.4437 C   0  0  0  0  0  0  0  0  0  0  0  0
    8.6315    7.7322   23.1768 C   0  0  0  0  0  0  0  0  0  0  0  0
   13.0537    9.9821   20.5781 C   0  0  0  0  0  0  0  0  0  0  0  0
   10.3850    4.6575   23.2386 O   0  0  0  0  0  0  0  0  0  0  0  0
    4.2069    6.8450   20.7994 C   0  0  0  0  0  0  0  0  0  0  0  0
    3.0726   10.1043   19.8522 O   0  0  0  0  0  0  0  0  0  0  0  0
    5.5057    7.1196   21.1155 C   0  0  0  0  0  0  0  0  0  0  0  0
    7.0367   11.0229   21.9948 O   0  0  0  0  0  0  0  0  0  0  0  0
  1  8  4  0
  1 12  4  0
  2  9  1  0
  2 11  4  0
  2 25  4  0
  3 12  4  0
  3 14  1  0
  3 23  4  0
  4 13  4  0
  4 21  4  0
  4 24  1  0
  5  8  4  0
  5 23  4  0
  6 18  2  0
  7 15  4  0
  7 16  1  0
  7 27  4  0
  8 18  1  0
 10 18  1  0
 10 20  1  0
 11 15  4  0
 11 26  1  0
 13 22  4  0
 16 19  1  0
 16 20  2  0
 17 19  4  0
 17 21  4  0
 19 22  4  0
 20 28  1  0
 25 27  4  0
M  END
$$$$

 Created by Python create_sdf_string function

 28 30  0  0  0  0  0  0  0  0999 V2000
   11.4592   11.2893   18.7941 C   0  0  0  0  0  0  0  0  0  0  0  0
    3.4202    7.9009   20.3866 C   0  0  0  0  0  0  0  0  0  0  0  0
   13.5280   10.3522   19.3586 C   0  0  0  0  0  0  0  0  0  0  0  0
    9.6923    5.6468   22.7891 C   0  0  0  0  0  0  0  0  0  0  0  0
   11.7756   10.2554   20.8841 N   0  0  0  0  0  0  0  0  0  0  0  0
    8.9876   11.9370   19.8757 O   0  0  0  0  0  0  0  0  0  0  0  0
    6.0167    8.4478   21.1089 C   0  0  0  0  0  0  0  0  0  0  0  0
   11.0002   10.8890   20.0262 C   0  0  0  0  0  0  0  0  0  0  0  0
    2.1721    7.7393   20.0315 O   0  0  0  0  0  0  0  0  0  0  0  0
    9.1107   10.3880   21.3769 N   0  0  0  0  0  0  0  0  0  0  0  0
    3.9102    9.2008   20.3124 C   0  0  0  0  0  0  0  0  0  0  0  0
   12.7292   10.9960   18.4597 C   0  0  0  0  0  0  0  0  0  0  0  0
    9.3798    6.6793   23.6625 C   0  0  0  0  0  0  0  0  0  0  0  0
   14.7425   10.0739   19.0802 O   0  0  0  0  0  0  0  0  0  0  0  0
    5.1894    9.4673   20.7118 C   0  0  0  0  0  0  0  0  0  0  0  0
    7.3773    8.8224   21.4870 C   0  0  0  0  0  0  0  0  0  0  0  0
    8.4391    6.6439   21.0235 C   0  0  0  0  0  0  0  0  0  0  0  0
    9.6494   11.1353   20.4167 C   0  0  0  0  0  0  0  0  0  0  0  0
    8.1431    7.6829   21.9046 C   0  0  0  0  0  0  0  0  0  0  0  0
    7.7796   10.1314   21.5115 N   0  0  0  0  0  0  0  0  0  0  0  0
    9.2768    5.6183   21.4437 C   0  0  0  0  0  0  0  0  0  0  0  0
    8.6315    7.7322   23.1768 C   0  0  0  0  0  0  0  0  0  0  0  0
   13.0537    9.9821   20.5781 C   0  0  0  0  0  0  0  0  0  0  0  0
   10.3850    4.6575   23.2386 O   0  0  0  0  0  0  0  0  0  0  0  0
    4.2069    6.8450   20.7994 C   0  0  0  0  0  0  0  0  0  0  0  0
    3.0726   10.1043   19.8522 O   0  0  0  0  0  0  0  0  0  0  0  0
    5.5057    7.1196   21.1155 C   0  0  0  0  0  0  0  0  0  0  0  0
    7.0367   11.0229   21.9948 O   0  0  0  0  0  0  0  0  0  0  0  0
  1  8  4  0
  1 12  4  0
  2  9  1  0
  2 11  4  0
  2 25  4  0
  3 12  4  0
  3 14  1  0
  3 23  4  0
  4 13  4  0
  4 21  4  0
  4 24  1  0
  5  8  4  0
  5 23  4  0
  6 18  2  0
  7 15  4  0
  7 16  1  0
  7 27  4  0
  8 18  1  0
 10 18  1  0
 10 20  1  0
 11 15  4  0
 11 26  1  0
 13 22  4  0
 16 19  1  0
 16 20  2  0
 17 19  4  0
 17 21  4  0
 19 22  4  0
 20 28  1  0
 25 27  4  0
M  END
$$$$

 Created by Python create_sdf_string function

 28 30  0  0  0  0  0  0  0  0999 V2000
   11.4592   11.2893   18.7941 C   0  0  0  0  0  0  0  0  0  0  0  0
    3.4202    7.9009   20.3866 C   0  0  0  0  0  0  0  0  0  0  0  0
   13.5280   10.3522   19.3586 C   0  0  0  0  0  0  0  0  0  0  0  0
    9.6923    5.6468   22.7891 C   0  0  0  0  0  0  0  0  0  0  0  0
   11.7756   10.2554   20.8841 N   0  0  0  0  0  0  0  0  0  0  0  0
    8.9876   11.9370   19.8757 O   0  0  0  0  0  0  0  0  0  0  0  0
    6.0167    8.4478   21.1089 C   0  0  0  0  0  0  0  0  0  0  0  0
   11.0002   10.8890   20.0262 C   0  0  0  0  0  0  0  0  0  0  0  0
    2.1721    7.7393   20.0315 O   0  0  0  0  0  0  0  0  0  0  0  0
    9.1107   10.3880   21.3769 N   0  0  0  0  0  0  0  0  0  0  0  0
    3.9102    9.2008   20.3124 C   0  0  0  0  0  0  0  0  0  0  0  0
   12.7292   10.9960   18.4597 C   0  0  0  0  0  0  0  0  0  0  0  0
    9.3798    6.6793   23.6625 C   0  0  0  0  0  0  0  0  0  0  0  0
   14.7425   10.0739   19.0802 O   0  0  0  0  0  0  0  0  0  0  0  0
    5.1894    9.4673   20.7118 C   0  0  0  0  0  0  0  0  0  0  0  0
    7.3773    8.8224   21.4870 C   0  0  0  0  0  0  0  0  0  0  0  0
    8.4391    6.6439   21.0235 C   0  0  0  0  0  0  0  0  0  0  0  0
    9.6494   11.1353   20.4167 C   0  0  0  0  0  0  0  0  0  0  0  0
    8.1431    7.6829   21.9046 C   0  0  0  0  0  0  0  0  0  0  0  0
    7.7796   10.1314   21.5115 N   0  0  0  0  0  0  0  0  0  0  0  0
    9.2768    5.6183   21.4437 C   0  0  0  0  0  0  0  0  0  0  0  0
    8.6315    7.7322   23.1768 C   0  0  0  0  0  0  0  0  0  0  0  0
   13.0537    9.9821   20.5781 C   0  0  0  0  0  0  0  0  0  0  0  0
   10.3850    4.6575   23.2386 O   0  0  0  0  0  0  0  0  0  0  0  0
    4.2069    6.8450   20.7994 C   0  0  0  0  0  0  0  0  0  0  0  0
    3.0726   10.1043   19.8522 O   0  0  0  0  0  0  0  0  0  0  0  0
    5.5057    7.1196   21.1155 C   0  0  0  0  0  0  0  0  0  0  0  0
    7.0367   11.0229   21.9948 O   0  0  0  0  0  0  0  0  0  0  0  0
  1  8  4  0
  1 12  4  0
  2  9  1  0
  2 11  4  0
  2 25  4  0
  3 12  4  0
  3 14  1  0
  3 23  4  0
  4 13  4  0
  4 21  4  0
  4 24  1  0
  5  8  4  0
  5 23  4  0
  6 18  2  0
  7 15  4  0
  7 16  1  0
  7 27  4  0
  8 18  1  0
 10 18  1  0
 10 20  1  0
 11 15  4  0
 11 26  1  0
 13 22  4  0
 16 19  1  0
 16 20  2  0
 17 19  4  0
 17 21  4  0
 19 22  4  0
 20 28  1  0
 25 27  4  0
M  END
$$$$

 Created by Python create_sdf_string function

 28 30  0  0  0  0  0  0  0  0999 V2000
   11.4592   11.2893   18.7941 C   0  0  0  0  0  0  0  0  0  0  0  0
    3.4202    7.9009   20.3866 C   0  0  0  0  0  0  0  0  0  0  0  0
   13.5280   10.3522   19.3586 C   0  0  0  0  0  0  0  0  0  0  0  0
    9.6923    5.6468   22.7891 C   0  0  0  0  0  0  0  0  0  0  0  0
   11.7756   10.2554   20.8841 N   0  0  0  0  0  0  0  0  0  0  0  0
    8.9876   11.9370   19.8757 O   0  0  0  0  0  0  0  0  0  0  0  0
    6.0167    8.4478   21.1089 C   0  0  0  0  0  0  0  0  0  0  0  0
   11.0002   10.8890   20.0262 C   0  0  0  0  0  0  0  0  0  0  0  0
    2.1721    7.7393   20.0315 O   0  0  0  0  0  0  0  0  0  0  0  0
    9.1107   10.3880   21.3769 N   0  0  0  0  0  0  0  0  0  0  0  0
    3.9102    9.2008   20.3124 C   0  0  0  0  0  0  0  0  0  0  0  0
   12.7292   10.9960   18.4597 C   0  0  0  0  0  0  0  0  0  0  0  0
    9.3798    6.6793   23.6625 C   0  0  0  0  0  0  0  0  0  0  0  0
   14.7425   10.0739   19.0802 O   0  0  0  0  0  0  0  0  0  0  0  0
    5.1894    9.4673   20.7118 C   0  0  0  0  0  0  0  0  0  0  0  0
    7.3773    8.8224   21.4870 C   0  0  0  0  0  0  0  0  0  0  0  0
    8.4391    6.6439   21.0235 C   0  0  0  0  0  0  0  0  0  0  0  0
    9.6494   11.1353   20.4167 C   0  0  0  0  0  0  0  0  0  0  0  0
    8.1431    7.6829   21.9046 C   0  0  0  0  0  0  0  0  0  0  0  0
    7.7796   10.1314   21.5115 N   0  0  0  0  0  0  0  0  0  0  0  0
    9.2768    5.6183   21.4437 C   0  0  0  0  0  0  0  0  0  0  0  0
    8.6315    7.7322   23.1768 C   0  0  0  0  0  0  0  0  0  0  0  0
   13.0537    9.9821   20.5781 C   0  0  0  0  0  0  0  0  0  0  0  0
   10.3850    4.6575   23.2386 O   0  0  0  0  0  0  0  0  0  0  0  0
    4.2069    6.8450   20.7994 C   0  0  0  0  0  0  0  0  0  0  0  0
    3.0726   10.1043   19.8522 O   0  0  0  0  0  0  0  0  0  0  0  0
    5.5057    7.1196   21.1155 C   0  0  0  0  0  0  0  0  0  0  0  0
    7.0367   11.0229   21.9948 O   0  0  0  0  0  0  0  0  0  0  0  0
  1  8  4  0
  1 12  4  0
  2  9  1  0
  2 11  4  0
  2 25  4  0
  3 12  4  0
  3 14  1  0
  3 23  4  0
  4 13  4  0
  4 21  4  0
  4 24  1  0
  5  8  4  0
  5 23  4  0
  6 18  2  0
  7 15  4  0
  7 16  1  0
  7 27  4  0
  8 18  1  0
 10 18  1  0
 10 20  1  0
 11 15  4  0
 11 26  1  0
 13 22  4  0
 16 19  1  0
 16 20  2  0
 17 19  4  0
 17 21  4  0
 19 22  4  0
 20 28  1  0
 25 27  4  0
M  END
$$$$

 Created by Python create_sdf_string function

 28 30  0  0  0  0  0  0  0  0999 V2000
   11.4592   11.2893   18.7941 C   0  0  0  0  0  0  0  0  0  0  0  0
    3.4202    7.9009   20.3866 C   0  0  0  0  0  0  0  0  0  0  0  0
   13.5280   10.3522   19.3586 C   0  0  0  0  0  0  0  0  0  0  0  0
    9.6923    5.6468   22.7891 C   0  0  0  0  0  0  0  0  0  0  0  0
   11.7756   10.2554   20.8841 N   0  0  0  0  0  0  0  0  0  0  0  0
    8.9876   11.9370   19.8757 O   0  0  0  0  0  0  0  0  0  0  0  0
    6.0167    8.4478   21.1089 C   0  0  0  0  0  0  0  0  0  0  0  0
   11.0002   10.8890   20.0262 C   0  0  0  0  0  0  0  0  0  0  0  0
    2.1721    7.7393   20.0315 O   0  0  0  0  0  0  0  0  0  0  0  0
    9.1107   10.3880   21.3769 N   0  0  0  0  0  0  0  0  0  0  0  0
    3.9102    9.2008   20.3124 C   0  0  0  0  0  0  0  0  0  0  0  0
   12.7292   10.9960   18.4597 C   0  0  0  0  0  0  0  0  0  0  0  0
    9.3798    6.6793   23.6625 C   0  0  0  0  0  0  0  0  0  0  0  0
   14.7425   10.0739   19.0802 O   0  0  0  0  0  0  0  0  0  0  0  0
    5.1894    9.4673   20.7118 C   0  0  0  0  0  0  0  0  0  0  0  0
    7.3773    8.8224   21.4870 C   0  0  0  0  0  0  0  0  0  0  0  0
    8.4391    6.6439   21.0235 C   0  0  0  0  0  0  0  0  0  0  0  0
    9.6494   11.1353   20.4167 C   0  0  0  0  0  0  0  0  0  0  0  0
    8.1431    7.6829   21.9046 C   0  0  0  0  0  0  0  0  0  0  0  0
    7.7796   10.1314   21.5115 N   0  0  0  0  0  0  0  0  0  0  0  0
    9.2768    5.6183   21.4437 C   0  0  0  0  0  0  0  0  0  0  0  0
    8.6315    7.7322   23.1768 C   0  0  0  0  0  0  0  0  0  0  0  0
   13.0537    9.9821   20.5781 C   0  0  0  0  0  0  0  0  0  0  0  0
   10.3850    4.6575   23.2386 O   0  0  0  0  0  0  0  0  0  0  0  0
    4.2069    6.8450   20.7994 C   0  0  0  0  0  0  0  0  0  0  0  0
    3.0726   10.1043   19.8522 O   0  0  0  0  0  0  0  0  0  0  0  0
    5.5057    7.1196   21.1155 C   0  0  0  0  0  0  0  0  0  0  0  0
    7.0367   11.0229   21.9948 O   0  0  0  0  0  0  0  0  0  0  0  0
  1  8  4  0
  1 12  4  0
  2  9  1  0
  2 11  4  0
  2 25  4  0
  3 12  4  0
  3 14  1  0
  3 23  4  0
  4 13  4  0
  4 21  4  0
  4 24  1  0
  5  8  4  0
  5 23  4  0
  6 18  2  0
  7 15  4  0
  7 16  1  0
  7 27  4  0
  8 18  1  0
 10 18  1  0
 10 20  1  0
 11 15  4  0
 11 26  1  0
 13 22  4  0
 16 19  1  0
 16 20  2  0
 17 19  4  0
 17 21  4  0
 19 22  4  0
 20 28  1  0
 25 27  4  0
M  END
$$$$

 Created by Python create_sdf_string function

 28 30  0  0  0  0  0  0  0  0999 V2000
   11.4592   11.2893   18.7941 C   0  0  0  0  0  0  0  0  0  0  0  0
    3.4202    7.9009   20.3866 C   0  0  0  0  0  0  0  0  0  0  0  0
   13.5280   10.3522   19.3586 C   0  0  0  0  0  0  0  0  0  0  0  0
    9.6923    5.6468   22.7891 C   0  0  0  0  0  0  0  0  0  0  0  0
   11.7756   10.2554   20.8841 N   0  0  0  0  0  0  0  0  0  0  0  0
    8.9876   11.9370   19.8757 O   0  0  0  0  0  0  0  0  0  0  0  0
    6.0167    8.4478   21.1089 C   0  0  0  0  0  0  0  0  0  0  0  0
   11.0002   10.8890   20.0262 C   0  0  0  0  0  0  0  0  0  0  0  0
    2.1721    7.7393   20.0315 O   0  0  0  0  0  0  0  0  0  0  0  0
    9.1107   10.3880   21.3769 N   0  0  0  0  0  0  0  0  0  0  0  0
    3.9102    9.2008   20.3124 C   0  0  0  0  0  0  0  0  0  0  0  0
   12.7292   10.9960   18.4597 C   0  0  0  0  0  0  0  0  0  0  0  0
    9.3798    6.6793   23.6625 C   0  0  0  0  0  0  0  0  0  0  0  0
   14.7425   10.0739   19.0802 O   0  0  0  0  0  0  0  0  0  0  0  0
    5.1894    9.4673   20.7118 C   0  0  0  0  0  0  0  0  0  0  0  0
    7.3773    8.8224   21.4870 C   0  0  0  0  0  0  0  0  0  0  0  0
    8.4391    6.6439   21.0235 C   0  0  0  0  0  0  0  0  0  0  0  0
    9.6494   11.1353   20.4167 C   0  0  0  0  0  0  0  0  0  0  0  0
    8.1431    7.6829   21.9046 C   0  0  0  0  0  0  0  0  0  0  0  0
    7.7796   10.1314   21.5115 N   0  0  0  0  0  0  0  0  0  0  0  0
    9.2768    5.6183   21.4437 C   0  0  0  0  0  0  0  0  0  0  0  0
    8.6315    7.7322   23.1768 C   0  0  0  0  0  0  0  0  0  0  0  0
   13.0537    9.9821   20.5781 C   0  0  0  0  0  0  0  0  0  0  0  0
   10.3850    4.6575   23.2386 O   0  0  0  0  0  0  0  0  0  0  0  0
    4.2069    6.8450   20.7994 C   0  0  0  0  0  0  0  0  0  0  0  0
    3.0726   10.1043   19.8522 O   0  0  0  0  0  0  0  0  0  0  0  0
    5.5057    7.1196   21.1155 C   0  0  0  0  0  0  0  0  0  0  0  0
    7.0367   11.0229   21.9948 O   0  0  0  0  0  0  0  0  0  0  0  0
  1  8  4  0
  1 12  4  0
  2  9  1  0
  2 11  4  0
  2 25  4  0
  3 12  4  0
  3 14  1  0
  3 23  4  0
  4 13  4  0
  4 21  4  0
  4 24  1  0
  5  8  4  0
  5 23  4  0
  6 18  2  0
  7 15  4  0
  7 16  1  0
  7 27  4  0
  8 18  1  0
 10 18  1  0
 10 20  1  0
 11 15  4  0
 11 26  1  0
 13 22  4  0
 16 19  1  0
 16 20  2  0
 17 19  4  0
 17 21  4  0
 19 22  4  0
 20 28  1  0
 25 27  4  0
M  END
$$$$

 Created by Python create_sdf_string function

 28 30  0  0  0  0  0  0  0  0999 V2000
   11.4592   11.2893   18.7941 C   0  0  0  0  0  0  0  0  0  0  0  0
    3.4202    7.9009   20.3866 C   0  0  0  0  0  0  0  0  0  0  0  0
   13.5280   10.3522   19.3586 C   0  0  0  0  0  0  0  0  0  0  0  0
    9.6923    5.6468   22.7891 C   0  0  0  0  0  0  0  0  0  0  0  0
   11.7756   10.2554   20.8841 N   0  0  0  0  0  0  0  0  0  0  0  0
    8.9876   11.9370   19.8757 O   0  0  0  0  0  0  0  0  0  0  0  0
    6.0167    8.4478   21.1089 C   0  0  0  0  0  0  0  0  0  0  0  0
   11.0002   10.8890   20.0262 C   0  0  0  0  0  0  0  0  0  0  0  0
    2.1721    7.7393   20.0315 O   0  0  0  0  0  0  0  0  0  0  0  0
    9.1107   10.3880   21.3769 N   0  0  0  0  0  0  0  0  0  0  0  0
    3.9102    9.2008   20.3124 C   0  0  0  0  0  0  0  0  0  0  0  0
   12.7292   10.9960   18.4597 C   0  0  0  0  0  0  0  0  0  0  0  0
    9.3798    6.6793   23.6625 C   0  0  0  0  0  0  0  0  0  0  0  0
   14.7425   10.0739   19.0802 O   0  0  0  0  0  0  0  0  0  0  0  0
    5.1894    9.4673   20.7118 C   0  0  0  0  0  0  0  0  0  0  0  0
    7.3773    8.8224   21.4870 C   0  0  0  0  0  0  0  0  0  0  0  0
    8.4391    6.6439   21.0235 C   0  0  0  0  0  0  0  0  0  0  0  0
    9.6494   11.1353   20.4167 C   0  0  0  0  0  0  0  0  0  0  0  0
    8.1431    7.6829   21.9046 C   0  0  0  0  0  0  0  0  0  0  0  0
    7.7796   10.1314   21.5115 N   0  0  0  0  0  0  0  0  0  0  0  0
    9.2768    5.6183   21.4437 C   0  0  0  0  0  0  0  0  0  0  0  0
    8.6315    7.7322   23.1768 C   0  0  0  0  0  0  0  0  0  0  0  0
   13.0537    9.9821   20.5781 C   0  0  0  0  0  0  0  0  0  0  0  0
   10.3850    4.6575   23.2386 O   0  0  0  0  0  0  0  0  0  0  0  0
    4.2069    6.8450   20.7994 C   0  0  0  0  0  0  0  0  0  0  0  0
    3.0726   10.1043   19.8522 O   0  0  0  0  0  0  0  0  0  0  0  0
    5.5057    7.1196   21.1155 C   0  0  0  0  0  0  0  0  0  0  0  0
    7.0367   11.0229   21.9948 O   0  0  0  0  0  0  0  0  0  0  0  0
  1  8  4  0
  1 12  4  0
  2  9  1  0
  2 11  4  0
  2 25  4  0
  3 12  4  0
  3 14  1  0
  3 23  4  0
  4 13  4  0
  4 21  4  0
  4 24  1  0
  5  8  4  0
  5 23  4  0
  6 18  2  0
  7 15  4  0
  7 16  1  0
  7 27  4  0
  8 18  1  0
 10 18  1  0
 10 20  1  0
 11 15  4  0
 11 26  1  0
 13 22  4  0
 16 19  1  0
 16 20  2  0
 17 19  4  0
 17 21  4  0
 19 22  4  0
 20 28  1  0
 25 27  4  0
M  END
$$$$

 Created by Python create_sdf_string function

 28 30  0  0  0  0  0  0  0  0999 V2000
   11.4592   11.2893   18.7941 C   0  0  0  0  0  0  0  0  0  0  0  0
    3.4202    7.9009   20.3866 C   0  0  0  0  0  0  0  0  0  0  0  0
   13.5280   10.3522   19.3586 C   0  0  0  0  0  0  0  0  0  0  0  0
    9.6923    5.6468   22.7891 C   0  0  0  0  0  0  0  0  0  0  0  0
   11.7756   10.2554   20.8841 N   0  0  0  0  0  0  0  0  0  0  0  0
    8.9876   11.9370   19.8757 O   0  0  0  0  0  0  0  0  0  0  0  0
    6.0167    8.4478   21.1089 C   0  0  0  0  0  0  0  0  0  0  0  0
   11.0002   10.8890   20.0262 C   0  0  0  0  0  0  0  0  0  0  0  0
    2.1721    7.7393   20.0315 O   0  0  0  0  0  0  0  0  0  0  0  0
    9.1107   10.3880   21.3769 N   0  0  0  0  0  0  0  0  0  0  0  0
    3.9102    9.2008   20.3124 C   0  0  0  0  0  0  0  0  0  0  0  0
   12.7292   10.9960   18.4597 C   0  0  0  0  0  0  0  0  0  0  0  0
    9.3798    6.6793   23.6625 C   0  0  0  0  0  0  0  0  0  0  0  0
   14.7425   10.0739   19.0802 O   0  0  0  0  0  0  0  0  0  0  0  0
    5.1894    9.4673   20.7118 C   0  0  0  0  0  0  0  0  0  0  0  0
    7.3773    8.8224   21.4870 C   0  0  0  0  0  0  0  0  0  0  0  0
    8.4391    6.6439   21.0235 C   0  0  0  0  0  0  0  0  0  0  0  0
    9.6494   11.1353   20.4167 C   0  0  0  0  0  0  0  0  0  0  0  0
    8.1431    7.6829   21.9046 C   0  0  0  0  0  0  0  0  0  0  0  0
    7.7796   10.1314   21.5115 N   0  0  0  0  0  0  0  0  0  0  0  0
    9.2768    5.6183   21.4437 C   0  0  0  0  0  0  0  0  0  0  0  0
    8.6315    7.7322   23.1768 C   0  0  0  0  0  0  0  0  0  0  0  0
   13.0537    9.9821   20.5781 C   0  0  0  0  0  0  0  0  0  0  0  0
   10.3850    4.6575   23.2386 O   0  0  0  0  0  0  0  0  0  0  0  0
    4.2069    6.8450   20.7994 C   0  0  0  0  0  0  0  0  0  0  0  0
    3.0726   10.1043   19.8522 O   0  0  0  0  0  0  0  0  0  0  0  0
    5.5057    7.1196   21.1155 C   0  0  0  0  0  0  0  0  0  0  0  0
    7.0367   11.0229   21.9948 O   0  0  0  0  0  0  0  0  0  0  0  0
  1  8  4  0
  1 12  4  0
  2  9  1  0
  2 11  4  0
  2 25  4  0
  3 12  4  0
  3 14  1  0
  3 23  4  0
  4 13  4  0
  4 21  4  0
  4 24  1  0
  5  8  4  0
  5 23  4  0
  6 18  2  0
  7 15  4  0
  7 16  1  0
  7 27  4  0
  8 18  1  0
 10 18  1  0
 10 20  1  0
 11 15  4  0
 11 26  1  0
 13 22  4  0
 16 19  1  0
 16 20  2  0
 17 19  4  0
 17 21  4  0
 19 22  4  0
 20 28  1  0
 25 27  4  0
M  END
$$$$

 Created by Python create_sdf_string function

 28 30  0  0  0  0  0  0  0  0999 V2000
   11.4592   11.2893   18.7941 C   0  0  0  0  0  0  0  0  0  0  0  0
    3.4202    7.9009   20.3866 C   0  0  0  0  0  0  0  0  0  0  0  0
   13.5280   10.3522   19.3586 C   0  0  0  0  0  0  0  0  0  0  0  0
    9.6923    5.6468   22.7891 C   0  0  0  0  0  0  0  0  0  0  0  0
   11.7756   10.2554   20.8841 N   0  0  0  0  0  0  0  0  0  0  0  0
    8.9876   11.9370   19.8757 O   0  0  0  0  0  0  0  0  0  0  0  0
    6.0167    8.4478   21.1089 C   0  0  0  0  0  0  0  0  0  0  0  0
   11.0002   10.8890   20.0262 C   0  0  0  0  0  0  0  0  0  0  0  0
    2.1721    7.7393   20.0315 O   0  0  0  0  0  0  0  0  0  0  0  0
    9.1107   10.3880   21.3769 N   0  0  0  0  0  0  0  0  0  0  0  0
    3.9102    9.2008   20.3124 C   0  0  0  0  0  0  0  0  0  0  0  0
   12.7292   10.9960   18.4597 C   0  0  0  0  0  0  0  0  0  0  0  0
    9.3798    6.6793   23.6625 C   0  0  0  0  0  0  0  0  0  0  0  0
   14.7425   10.0739   19.0802 O   0  0  0  0  0  0  0  0  0  0  0  0
    5.1894    9.4673   20.7118 C   0  0  0  0  0  0  0  0  0  0  0  0
    7.3773    8.8224   21.4870 C   0  0  0  0  0  0  0  0  0  0  0  0
    8.4391    6.6439   21.0235 C   0  0  0  0  0  0  0  0  0  0  0  0
    9.6494   11.1353   20.4167 C   0  0  0  0  0  0  0  0  0  0  0  0
    8.1431    7.6829   21.9046 C   0  0  0  0  0  0  0  0  0  0  0  0
    7.7796   10.1314   21.5115 N   0  0  0  0  0  0  0  0  0  0  0  0
    9.2768    5.6183   21.4437 C   0  0  0  0  0  0  0  0  0  0  0  0
    8.6315    7.7322   23.1768 C   0  0  0  0  0  0  0  0  0  0  0  0
   13.0537    9.9821   20.5781 C   0  0  0  0  0  0  0  0  0  0  0  0
   10.3850    4.6575   23.2386 O   0  0  0  0  0  0  0  0  0  0  0  0
    4.2069    6.8450   20.7994 C   0  0  0  0  0  0  0  0  0  0  0  0
    3.0726   10.1043   19.8522 O   0  0  0  0  0  0  0  0  0  0  0  0
    5.5057    7.1196   21.1155 C   0  0  0  0  0  0  0  0  0  0  0  0
    7.0367   11.0229   21.9948 O   0  0  0  0  0  0  0  0  0  0  0  0
  1  8  4  0
  1 12  4  0
  2  9  1  0
  2 11  4  0
  2 25  4  0
  3 12  4  0
  3 14  1  0
  3 23  4  0
  4 13  4  0
  4 21  4  0
  4 24  1  0
  5  8  4  0
  5 23  4  0
  6 18  2  0
  7 15  4  0
  7 16  1  0
  7 27  4  0
  8 18  1  0
 10 18  1  0
 10 20  1  0
 11 15  4  0
 11 26  1  0
 13 22  4  0
 16 19  1  0
 16 20  2  0
 17 19  4  0
 17 21  4  0
 19 22  4  0
 20 28  1  0
 25 27  4  0
M  END
$$$$

 Created by Python create_sdf_string function

 28 30  0  0  0  0  0  0  0  0999 V2000
   11.4592   11.2893   18.7941 C   0  0  0  0  0  0  0  0  0  0  0  0
    3.4202    7.9009   20.3866 C   0  0  0  0  0  0  0  0  0  0  0  0
   13.5280   10.3522   19.3586 C   0  0  0  0  0  0  0  0  0  0  0  0
    9.6923    5.6468   22.7891 C   0  0  0  0  0  0  0  0  0  0  0  0
   11.7756   10.2554   20.8841 N   0  0  0  0  0  0  0  0  0  0  0  0
    8.9876   11.9370   19.8757 O   0  0  0  0  0  0  0  0  0  0  0  0
    6.0167    8.4478   21.1089 C   0  0  0  0  0  0  0  0  0  0  0  0
   11.0002   10.8890   20.0262 C   0  0  0  0  0  0  0  0  0  0  0  0
    2.1721    7.7393   20.0315 O   0  0  0  0  0  0  0  0  0  0  0  0
    9.1107   10.3880   21.3769 N   0  0  0  0  0  0  0  0  0  0  0  0
    3.9102    9.2008   20.3124 C   0  0  0  0  0  0  0  0  0  0  0  0
   12.7292   10.9960   18.4597 C   0  0  0  0  0  0  0  0  0  0  0  0
    9.3798    6.6793   23.6625 C   0  0  0  0  0  0  0  0  0  0  0  0
   14.7425   10.0739   19.0802 O   0  0  0  0  0  0  0  0  0  0  0  0
    5.1894    9.4673   20.7118 C   0  0  0  0  0  0  0  0  0  0  0  0
    7.3773    8.8224   21.4870 C   0  0  0  0  0  0  0  0  0  0  0  0
    8.4391    6.6439   21.0235 C   0  0  0  0  0  0  0  0  0  0  0  0
    9.6494   11.1353   20.4167 C   0  0  0  0  0  0  0  0  0  0  0  0
    8.1431    7.6829   21.9046 C   0  0  0  0  0  0  0  0  0  0  0  0
    7.7796   10.1314   21.5115 N   0  0  0  0  0  0  0  0  0  0  0  0
    9.2768    5.6183   21.4437 C   0  0  0  0  0  0  0  0  0  0  0  0
    8.6315    7.7322   23.1768 C   0  0  0  0  0  0  0  0  0  0  0  0
   13.0537    9.9821   20.5781 C   0  0  0  0  0  0  0  0  0  0  0  0
   10.3850    4.6575   23.2386 O   0  0  0  0  0  0  0  0  0  0  0  0
    4.2069    6.8450   20.7994 C   0  0  0  0  0  0  0  0  0  0  0  0
    3.0726   10.1043   19.8522 O   0  0  0  0  0  0  0  0  0  0  0  0
    5.5057    7.1196   21.1155 C   0  0  0  0  0  0  0  0  0  0  0  0
    7.0367   11.0229   21.9948 O   0  0  0  0  0  0  0  0  0  0  0  0
  1  8  4  0
  1 12  4  0
  2  9  1  0
  2 11  4  0
  2 25  4  0
  3 12  4  0
  3 14  1  0
  3 23  4  0
  4 13  4  0
  4 21  4  0
  4 24  1  0
  5  8  4  0
  5 23  4  0
  6 18  2  0
  7 15  4  0
  7 16  1  0
  7 27  4  0
  8 18  1  0
 10 18  1  0
 10 20  1  0
 11 15  4  0
 11 26  1  0
 13 22  4  0
 16 19  1  0
 16 20  2  0
 17 19  4  0
 17 21  4  0
 19 22  4  0
 20 28  1  0
 25 27  4  0
M  END
$$$$

 Created by Python create_sdf_string function

 28 30  0  0  0  0  0  0  0  0999 V2000
   11.4592   11.2893   18.7941 C   0  0  0  0  0  0  0  0  0  0  0  0
    3.4202    7.9009   20.3866 C   0  0  0  0  0  0  0  0  0  0  0  0
   13.5280   10.3522   19.3586 C   0  0  0  0  0  0  0  0  0  0  0  0
    9.6923    5.6468   22.7891 C   0  0  0  0  0  0  0  0  0  0  0  0
   11.7756   10.2554   20.8841 N   0  0  0  0  0  0  0  0  0  0  0  0
    8.9876   11.9370   19.8757 O   0  0  0  0  0  0  0  0  0  0  0  0
    6.0167    8.4478   21.1089 C   0  0  0  0  0  0  0  0  0  0  0  0
   11.0002   10.8890   20.0262 C   0  0  0  0  0  0  0  0  0  0  0  0
    2.1721    7.7393   20.0315 O   0  0  0  0  0  0  0  0  0  0  0  0
    9.1107   10.3880   21.3769 N   0  0  0  0  0  0  0  0  0  0  0  0
    3.9102    9.2008   20.3124 C   0  0  0  0  0  0  0  0  0  0  0  0
   12.7292   10.9960   18.4597 C   0  0  0  0  0  0  0  0  0  0  0  0
    9.3798    6.6793   23.6625 C   0  0  0  0  0  0  0  0  0  0  0  0
   14.7425   10.0739   19.0802 O   0  0  0  0  0  0  0  0  0  0  0  0
    5.1894    9.4673   20.7118 C   0  0  0  0  0  0  0  0  0  0  0  0
    7.3773    8.8224   21.4870 C   0  0  0  0  0  0  0  0  0  0  0  0
    8.4391    6.6439   21.0235 C   0  0  0  0  0  0  0  0  0  0  0  0
    9.6494   11.1353   20.4167 C   0  0  0  0  0  0  0  0  0  0  0  0
    8.1431    7.6829   21.9046 C   0  0  0  0  0  0  0  0  0  0  0  0
    7.7796   10.1314   21.5115 N   0  0  0  0  0  0  0  0  0  0  0  0
    9.2768    5.6183   21.4437 C   0  0  0  0  0  0  0  0  0  0  0  0
    8.6315    7.7322   23.1768 C   0  0  0  0  0  0  0  0  0  0  0  0
   13.0537    9.9821   20.5781 C   0  0  0  0  0  0  0  0  0  0  0  0
   10.3850    4.6575   23.2386 O   0  0  0  0  0  0  0  0  0  0  0  0
    4.2069    6.8450   20.7994 C   0  0  0  0  0  0  0  0  0  0  0  0
    3.0726   10.1043   19.8522 O   0  0  0  0  0  0  0  0  0  0  0  0
    5.5057    7.1196   21.1155 C   0  0  0  0  0  0  0  0  0  0  0  0
    7.0367   11.0229   21.9948 O   0  0  0  0  0  0  0  0  0  0  0  0
  1  8  4  0
  1 12  4  0
  2  9  1  0
  2 11  4  0
  2 25  4  0
  3 12  4  0
  3 14  1  0
  3 23  4  0
  4 13  4  0
  4 21  4  0
  4 24  1  0
  5  8  4  0
  5 23  4  0
  6 18  2  0
  7 15  4  0
  7 16  1  0
  7 27  4  0
  8 18  1  0
 10 18  1  0
 10 20  1  0
 11 15  4  0
 11 26  1  0
 13 22  4  0
 16 19  1  0
 16 20  2  0
 17 19  4  0
 17 21  4  0
 19 22  4  0
 20 28  1  0
 25 27  4  0
M  END
$$$$

 Created by Python create_sdf_string function

 28 30  0  0  0  0  0  0  0  0999 V2000
   11.4592   11.2893   18.7941 C   0  0  0  0  0  0  0  0  0  0  0  0
    3.4202    7.9009   20.3866 C   0  0  0  0  0  0  0  0  0  0  0  0
   13.5280   10.3522   19.3586 C   0  0  0  0  0  0  0  0  0  0  0  0
    9.6923    5.6468   22.7891 C   0  0  0  0  0  0  0  0  0  0  0  0
   11.7756   10.2554   20.8841 N   0  0  0  0  0  0  0  0  0  0  0  0
    8.9876   11.9370   19.8757 O   0  0  0  0  0  0  0  0  0  0  0  0
    6.0167    8.4478   21.1089 C   0  0  0  0  0  0  0  0  0  0  0  0
   11.0002   10.8890   20.0262 C   0  0  0  0  0  0  0  0  0  0  0  0
    2.1721    7.7393   20.0315 O   0  0  0  0  0  0  0  0  0  0  0  0
    9.1107   10.3880   21.3769 N   0  0  0  0  0  0  0  0  0  0  0  0
    3.9102    9.2008   20.3124 C   0  0  0  0  0  0  0  0  0  0  0  0
   12.7292   10.9960   18.4597 C   0  0  0  0  0  0  0  0  0  0  0  0
    9.3798    6.6793   23.6625 C   0  0  0  0  0  0  0  0  0  0  0  0
   14.7425   10.0739   19.0802 O   0  0  0  0  0  0  0  0  0  0  0  0
    5.1894    9.4673   20.7118 C   0  0  0  0  0  0  0  0  0  0  0  0
    7.3773    8.8224   21.4870 C   0  0  0  0  0  0  0  0  0  0  0  0
    8.4391    6.6439   21.0235 C   0  0  0  0  0  0  0  0  0  0  0  0
    9.6494   11.1353   20.4167 C   0  0  0  0  0  0  0  0  0  0  0  0
    8.1431    7.6829   21.9046 C   0  0  0  0  0  0  0  0  0  0  0  0
    7.7796   10.1314   21.5115 N   0  0  0  0  0  0  0  0  0  0  0  0
    9.2768    5.6183   21.4437 C   0  0  0  0  0  0  0  0  0  0  0  0
    8.6315    7.7322   23.1768 C   0  0  0  0  0  0  0  0  0  0  0  0
   13.0537    9.9821   20.5781 C   0  0  0  0  0  0  0  0  0  0  0  0
   10.3850    4.6575   23.2386 O   0  0  0  0  0  0  0  0  0  0  0  0
    4.2069    6.8450   20.7994 C   0  0  0  0  0  0  0  0  0  0  0  0
    3.0726   10.1043   19.8522 O   0  0  0  0  0  0  0  0  0  0  0  0
    5.5057    7.1196   21.1155 C   0  0  0  0  0  0  0  0  0  0  0  0
    7.0367   11.0229   21.9948 O   0  0  0  0  0  0  0  0  0  0  0  0
  1  8  4  0
  1 12  4  0
  2  9  1  0
  2 11  4  0
  2 25  4  0
  3 12  4  0
  3 14  1  0
  3 23  4  0
  4 13  4  0
  4 21  4  0
  4 24  1  0
  5  8  4  0
  5 23  4  0
  6 18  2  0
  7 15  4  0
  7 16  1  0
  7 27  4  0
  8 18  1  0
 10 18  1  0
 10 20  1  0
 11 15  4  0
 11 26  1  0
 13 22  4  0
 16 19  1  0
 16 20  2  0
 17 19  4  0
 17 21  4  0
 19 22  4  0
 20 28  1  0
 25 27  4  0
M  END
$$$$

 Created by Python create_sdf_string function

 28 30  0  0  0  0  0  0  0  0999 V2000
   11.4592   11.2893   18.7941 C   0  0  0  0  0  0  0  0  0  0  0  0
    3.4202    7.9009   20.3866 C   0  0  0  0  0  0  0  0  0  0  0  0
   13.5280   10.3522   19.3586 C   0  0  0  0  0  0  0  0  0  0  0  0
    9.6923    5.6468   22.7891 C   0  0  0  0  0  0  0  0  0  0  0  0
   11.7756   10.2554   20.8841 N   0  0  0  0  0  0  0  0  0  0  0  0
    8.9876   11.9370   19.8757 O   0  0  0  0  0  0  0  0  0  0  0  0
    6.0167    8.4478   21.1089 C   0  0  0  0  0  0  0  0  0  0  0  0
   11.0002   10.8890   20.0262 C   0  0  0  0  0  0  0  0  0  0  0  0
    2.1721    7.7393   20.0315 O   0  0  0  0  0  0  0  0  0  0  0  0
    9.1107   10.3880   21.3769 N   0  0  0  0  0  0  0  0  0  0  0  0
    3.9102    9.2008   20.3124 C   0  0  0  0  0  0  0  0  0  0  0  0
   12.7292   10.9960   18.4597 C   0  0  0  0  0  0  0  0  0  0  0  0
    9.3798    6.6793   23.6625 C   0  0  0  0  0  0  0  0  0  0  0  0
   14.7425   10.0739   19.0802 O   0  0  0  0  0  0  0  0  0  0  0  0
    5.1894    9.4673   20.7118 C   0  0  0  0  0  0  0  0  0  0  0  0
    7.3773    8.8224   21.4870 C   0  0  0  0  0  0  0  0  0  0  0  0
    8.4391    6.6439   21.0235 C   0  0  0  0  0  0  0  0  0  0  0  0
    9.6494   11.1353   20.4167 C   0  0  0  0  0  0  0  0  0  0  0  0
    8.1431    7.6829   21.9046 C   0  0  0  0  0  0  0  0  0  0  0  0
    7.7796   10.1314   21.5115 N   0  0  0  0  0  0  0  0  0  0  0  0
    9.2768    5.6183   21.4437 C   0  0  0  0  0  0  0  0  0  0  0  0
    8.6315    7.7322   23.1768 C   0  0  0  0  0  0  0  0  0  0  0  0
   13.0537    9.9821   20.5781 C   0  0  0  0  0  0  0  0  0  0  0  0
   10.3850    4.6575   23.2386 O   0  0  0  0  0  0  0  0  0  0  0  0
    4.2069    6.8450   20.7994 C   0  0  0  0  0  0  0  0  0  0  0  0
    3.0726   10.1043   19.8522 O   0  0  0  0  0  0  0  0  0  0  0  0
    5.5057    7.1196   21.1155 C   0  0  0  0  0  0  0  0  0  0  0  0
    7.0367   11.0229   21.9948 O   0  0  0  0  0  0  0  0  0  0  0  0
  1  8  4  0
  1 12  4  0
  2  9  1  0
  2 11  4  0
  2 25  4  0
  3 12  4  0
  3 14  1  0
  3 23  4  0
  4 13  4  0
  4 21  4  0
  4 24  1  0
  5  8  4  0
  5 23  4  0
  6 18  2  0
  7 15  4  0
  7 16  1  0
  7 27  4  0
  8 18  1  0
 10 18  1  0
 10 20  1  0
 11 15  4  0
 11 26  1  0
 13 22  4  0
 16 19  1  0
 16 20  2  0
 17 19  4  0
 17 21  4  0
 19 22  4  0
 20 28  1  0
 25 27  4  0
M  END
$$$$

 Created by Python create_sdf_string function

 28 30  0  0  0  0  0  0  0  0999 V2000
   11.4592   11.2893   18.7941 C   0  0  0  0  0  0  0  0  0  0  0  0
    3.4202    7.9009   20.3866 C   0  0  0  0  0  0  0  0  0  0  0  0
   13.5280   10.3522   19.3586 C   0  0  0  0  0  0  0  0  0  0  0  0
    9.6923    5.6468   22.7891 C   0  0  0  0  0  0  0  0  0  0  0  0
   11.7756   10.2554   20.8841 N   0  0  0  0  0  0  0  0  0  0  0  0
    8.9876   11.9370   19.8757 O   0  0  0  0  0  0  0  0  0  0  0  0
    6.0167    8.4478   21.1089 C   0  0  0  0  0  0  0  0  0  0  0  0
   11.0002   10.8890   20.0262 C   0  0  0  0  0  0  0  0  0  0  0  0
    2.1721    7.7393   20.0315 O   0  0  0  0  0  0  0  0  0  0  0  0
    9.1107   10.3880   21.3769 N   0  0  0  0  0  0  0  0  0  0  0  0
    3.9102    9.2008   20.3124 C   0  0  0  0  0  0  0  0  0  0  0  0
   12.7292   10.9960   18.4597 C   0  0  0  0  0  0  0  0  0  0  0  0
    9.3798    6.6793   23.6625 C   0  0  0  0  0  0  0  0  0  0  0  0
   14.7425   10.0739   19.0802 O   0  0  0  0  0  0  0  0  0  0  0  0
    5.1894    9.4673   20.7118 C   0  0  0  0  0  0  0  0  0  0  0  0
    7.3773    8.8224   21.4870 C   0  0  0  0  0  0  0  0  0  0  0  0
    8.4391    6.6439   21.0235 C   0  0  0  0  0  0  0  0  0  0  0  0
    9.6494   11.1353   20.4167 C   0  0  0  0  0  0  0  0  0  0  0  0
    8.1431    7.6829   21.9046 C   0  0  0  0  0  0  0  0  0  0  0  0
    7.7796   10.1314   21.5115 N   0  0  0  0  0  0  0  0  0  0  0  0
    9.2768    5.6183   21.4437 C   0  0  0  0  0  0  0  0  0  0  0  0
    8.6315    7.7322   23.1768 C   0  0  0  0  0  0  0  0  0  0  0  0
   13.0537    9.9821   20.5781 C   0  0  0  0  0  0  0  0  0  0  0  0
   10.3850    4.6575   23.2386 O   0  0  0  0  0  0  0  0  0  0  0  0
    4.2069    6.8450   20.7994 C   0  0  0  0  0  0  0  0  0  0  0  0
    3.0726   10.1043   19.8522 O   0  0  0  0  0  0  0  0  0  0  0  0
    5.5057    7.1196   21.1155 C   0  0  0  0  0  0  0  0  0  0  0  0
    7.0367   11.0229   21.9948 O   0  0  0  0  0  0  0  0  0  0  0  0
  1  8  4  0
  1 12  4  0
  2  9  1  0
  2 11  4  0
  2 25  4  0
  3 12  4  0
  3 14  1  0
  3 23  4  0
  4 13  4  0
  4 21  4  0
  4 24  1  0
  5  8  4  0
  5 23  4  0
  6 18  2  0
  7 15  4  0
  7 16  1  0
  7 27  4  0
  8 18  1  0
 10 18  1  0
 10 20  1  0
 11 15  4  0
 11 26  1  0
 13 22  4  0
 16 19  1  0
 16 20  2  0
 17 19  4  0
 17 21  4  0
 19 22  4  0
 20 28  1  0
 25 27  4  0
M  END
$$$$

 Created by Python create_sdf_string function

 28 30  0  0  0  0  0  0  0  0999 V2000
   11.4592   11.2893   18.7941 C   0  0  0  0  0  0  0  0  0  0  0  0
    3.4202    7.9009   20.3866 C   0  0  0  0  0  0  0  0  0  0  0  0
   13.5280   10.3522   19.3586 C   0  0  0  0  0  0  0  0  0  0  0  0
    9.6923    5.6468   22.7891 C   0  0  0  0  0  0  0  0  0  0  0  0
   11.7756   10.2554   20.8841 N   0  0  0  0  0  0  0  0  0  0  0  0
    8.9876   11.9370   19.8757 O   0  0  0  0  0  0  0  0  0  0  0  0
    6.0167    8.4478   21.1089 C   0  0  0  0  0  0  0  0  0  0  0  0
   11.0002   10.8890   20.0262 C   0  0  0  0  0  0  0  0  0  0  0  0
    2.1721    7.7393   20.0315 O   0  0  0  0  0  0  0  0  0  0  0  0
    9.1107   10.3880   21.3769 N   0  0  0  0  0  0  0  0  0  0  0  0
    3.9102    9.2008   20.3124 C   0  0  0  0  0  0  0  0  0  0  0  0
   12.7292   10.9960   18.4597 C   0  0  0  0  0  0  0  0  0  0  0  0
    9.3798    6.6793   23.6625 C   0  0  0  0  0  0  0  0  0  0  0  0
   14.7425   10.0739   19.0802 O   0  0  0  0  0  0  0  0  0  0  0  0
    5.1894    9.4673   20.7118 C   0  0  0  0  0  0  0  0  0  0  0  0
    7.3773    8.8224   21.4870 C   0  0  0  0  0  0  0  0  0  0  0  0
    8.4391    6.6439   21.0235 C   0  0  0  0  0  0  0  0  0  0  0  0
    9.6494   11.1353   20.4167 C   0  0  0  0  0  0  0  0  0  0  0  0
    8.1431    7.6829   21.9046 C   0  0  0  0  0  0  0  0  0  0  0  0
    7.7796   10.1314   21.5115 N   0  0  0  0  0  0  0  0  0  0  0  0
    9.2768    5.6183   21.4437 C   0  0  0  0  0  0  0  0  0  0  0  0
    8.6315    7.7322   23.1768 C   0  0  0  0  0  0  0  0  0  0  0  0
   13.0537    9.9821   20.5781 C   0  0  0  0  0  0  0  0  0  0  0  0
   10.3850    4.6575   23.2386 O   0  0  0  0  0  0  0  0  0  0  0  0
    4.2069    6.8450   20.7994 C   0  0  0  0  0  0  0  0  0  0  0  0
    3.0726   10.1043   19.8522 O   0  0  0  0  0  0  0  0  0  0  0  0
    5.5057    7.1196   21.1155 C   0  0  0  0  0  0  0  0  0  0  0  0
    7.0367   11.0229   21.9948 O   0  0  0  0  0  0  0  0  0  0  0  0
  1  8  4  0
  1 12  4  0
  2  9  1  0
  2 11  4  0
  2 25  4  0
  3 12  4  0
  3 14  1  0
  3 23  4  0
  4 13  4  0
  4 21  4  0
  4 24  1  0
  5  8  4  0
  5 23  4  0
  6 18  2  0
  7 15  4  0
  7 16  1  0
  7 27  4  0
  8 18  1  0
 10 18  1  0
 10 20  1  0
 11 15  4  0
 11 26  1  0
 13 22  4  0
 16 19  1  0
 16 20  2  0
 17 19  4  0
 17 21  4  0
 19 22  4  0
 20 28  1  0
 25 27  4  0
M  END
$$$$

 Created by Python create_sdf_string function

 28 30  0  0  0  0  0  0  0  0999 V2000
   11.4592   11.2893   18.7941 C   0  0  0  0  0  0  0  0  0  0  0  0
    3.4202    7.9009   20.3866 C   0  0  0  0  0  0  0  0  0  0  0  0
   13.5280   10.3522   19.3586 C   0  0  0  0  0  0  0  0  0  0  0  0
    9.6923    5.6468   22.7891 C   0  0  0  0  0  0  0  0  0  0  0  0
   11.7756   10.2554   20.8841 N   0  0  0  0  0  0  0  0  0  0  0  0
    8.9876   11.9370   19.8757 O   0  0  0  0  0  0  0  0  0  0  0  0
    6.0167    8.4478   21.1089 C   0  0  0  0  0  0  0  0  0  0  0  0
   11.0002   10.8890   20.0262 C   0  0  0  0  0  0  0  0  0  0  0  0
    2.1721    7.7393   20.0315 O   0  0  0  0  0  0  0  0  0  0  0  0
    9.1107   10.3880   21.3769 N   0  0  0  0  0  0  0  0  0  0  0  0
    3.9102    9.2008   20.3124 C   0  0  0  0  0  0  0  0  0  0  0  0
   12.7292   10.9960   18.4597 C   0  0  0  0  0  0  0  0  0  0  0  0
    9.3798    6.6793   23.6625 C   0  0  0  0  0  0  0  0  0  0  0  0
   14.7425   10.0739   19.0802 O   0  0  0  0  0  0  0  0  0  0  0  0
    5.1894    9.4673   20.7118 C   0  0  0  0  0  0  0  0  0  0  0  0
    7.3773    8.8224   21.4870 C   0  0  0  0  0  0  0  0  0  0  0  0
    8.4391    6.6439   21.0235 C   0  0  0  0  0  0  0  0  0  0  0  0
    9.6494   11.1353   20.4167 C   0  0  0  0  0  0  0  0  0  0  0  0
    8.1431    7.6829   21.9046 C   0  0  0  0  0  0  0  0  0  0  0  0
    7.7796   10.1314   21.5115 N   0  0  0  0  0  0  0  0  0  0  0  0
    9.2768    5.6183   21.4437 C   0  0  0  0  0  0  0  0  0  0  0  0
    8.6315    7.7322   23.1768 C   0  0  0  0  0  0  0  0  0  0  0  0
   13.0537    9.9821   20.5781 C   0  0  0  0  0  0  0  0  0  0  0  0
   10.3850    4.6575   23.2386 O   0  0  0  0  0  0  0  0  0  0  0  0
    4.2069    6.8450   20.7994 C   0  0  0  0  0  0  0  0  0  0  0  0
    3.0726   10.1043   19.8522 O   0  0  0  0  0  0  0  0  0  0  0  0
    5.5057    7.1196   21.1155 C   0  0  0  0  0  0  0  0  0  0  0  0
    7.0367   11.0229   21.9948 O   0  0  0  0  0  0  0  0  0  0  0  0
  1  8  4  0
  1 12  4  0
  2  9  1  0
  2 11  4  0
  2 25  4  0
  3 12  4  0
  3 14  1  0
  3 23  4  0
  4 13  4  0
  4 21  4  0
  4 24  1  0
  5  8  4  0
  5 23  4  0
  6 18  2  0
  7 15  4  0
  7 16  1  0
  7 27  4  0
  8 18  1  0
 10 18  1  0
 10 20  1  0
 11 15  4  0
 11 26  1  0
 13 22  4  0
 16 19  1  0
 16 20  2  0
 17 19  4  0
 17 21  4  0
 19 22  4  0
 20 28  1  0
 25 27  4  0
M  END
$$$$

 Created by Python create_sdf_string function

 28 30  0  0  0  0  0  0  0  0999 V2000
   11.4592   11.2893   18.7941 C   0  0  0  0  0  0  0  0  0  0  0  0
    3.4202    7.9009   20.3866 C   0  0  0  0  0  0  0  0  0  0  0  0
   13.5280   10.3522   19.3586 C   0  0  0  0  0  0  0  0  0  0  0  0
    9.6923    5.6468   22.7891 C   0  0  0  0  0  0  0  0  0  0  0  0
   11.7756   10.2554   20.8841 N   0  0  0  0  0  0  0  0  0  0  0  0
    8.9876   11.9370   19.8757 O   0  0  0  0  0  0  0  0  0  0  0  0
    6.0167    8.4478   21.1089 C   0  0  0  0  0  0  0  0  0  0  0  0
   11.0002   10.8890   20.0262 C   0  0  0  0  0  0  0  0  0  0  0  0
    2.1721    7.7393   20.0315 O   0  0  0  0  0  0  0  0  0  0  0  0
    9.1107   10.3880   21.3769 N   0  0  0  0  0  0  0  0  0  0  0  0
    3.9102    9.2008   20.3124 C   0  0  0  0  0  0  0  0  0  0  0  0
   12.7292   10.9960   18.4597 C   0  0  0  0  0  0  0  0  0  0  0  0
    9.3798    6.6793   23.6625 C   0  0  0  0  0  0  0  0  0  0  0  0
   14.7425   10.0739   19.0802 O   0  0  0  0  0  0  0  0  0  0  0  0
    5.1894    9.4673   20.7118 C   0  0  0  0  0  0  0  0  0  0  0  0
    7.3773    8.8224   21.4870 C   0  0  0  0  0  0  0  0  0  0  0  0
    8.4391    6.6439   21.0235 C   0  0  0  0  0  0  0  0  0  0  0  0
    9.6494   11.1353   20.4167 C   0  0  0  0  0  0  0  0  0  0  0  0
    8.1431    7.6829   21.9046 C   0  0  0  0  0  0  0  0  0  0  0  0
    7.7796   10.1314   21.5115 N   0  0  0  0  0  0  0  0  0  0  0  0
    9.2768    5.6183   21.4437 C   0  0  0  0  0  0  0  0  0  0  0  0
    8.6315    7.7322   23.1768 C   0  0  0  0  0  0  0  0  0  0  0  0
   13.0537    9.9821   20.5781 C   0  0  0  0  0  0  0  0  0  0  0  0
   10.3850    4.6575   23.2386 O   0  0  0  0  0  0  0  0  0  0  0  0
    4.2069    6.8450   20.7994 C   0  0  0  0  0  0  0  0  0  0  0  0
    3.0726   10.1043   19.8522 O   0  0  0  0  0  0  0  0  0  0  0  0
    5.5057    7.1196   21.1155 C   0  0  0  0  0  0  0  0  0  0  0  0
    7.0367   11.0229   21.9948 O   0  0  0  0  0  0  0  0  0  0  0  0
  1  8  4  0
  1 12  4  0
  2  9  1  0
  2 11  4  0
  2 25  4  0
  3 12  4  0
  3 14  1  0
  3 23  4  0
  4 13  4  0
  4 21  4  0
  4 24  1  0
  5  8  4  0
  5 23  4  0
  6 18  2  0
  7 15  4  0
  7 16  1  0
  7 27  4  0
  8 18  1  0
 10 18  1  0
 10 20  1  0
 11 15  4  0
 11 26  1  0
 13 22  4  0
 16 19  1  0
 16 20  2  0
 17 19  4  0
 17 21  4  0
 19 22  4  0
 20 28  1  0
 25 27  4  0
M  END
$$$$

 Created by Python create_sdf_string function

 28 30  0  0  0  0  0  0  0  0999 V2000
   11.4592   11.2893   18.7941 C   0  0  0  0  0  0  0  0  0  0  0  0
    3.4202    7.9009   20.3866 C   0  0  0  0  0  0  0  0  0  0  0  0
   13.5280   10.3522   19.3586 C   0  0  0  0  0  0  0  0  0  0  0  0
    9.6923    5.6468   22.7891 C   0  0  0  0  0  0  0  0  0  0  0  0
   11.7756   10.2554   20.8841 N   0  0  0  0  0  0  0  0  0  0  0  0
    8.9876   11.9370   19.8757 O   0  0  0  0  0  0  0  0  0  0  0  0
    6.0167    8.4478   21.1089 C   0  0  0  0  0  0  0  0  0  0  0  0
   11.0002   10.8890   20.0262 C   0  0  0  0  0  0  0  0  0  0  0  0
    2.1721    7.7393   20.0315 O   0  0  0  0  0  0  0  0  0  0  0  0
    9.1107   10.3880   21.3769 N   0  0  0  0  0  0  0  0  0  0  0  0
    3.9102    9.2008   20.3124 C   0  0  0  0  0  0  0  0  0  0  0  0
   12.7292   10.9960   18.4597 C   0  0  0  0  0  0  0  0  0  0  0  0
    9.3798    6.6793   23.6625 C   0  0  0  0  0  0  0  0  0  0  0  0
   14.7425   10.0739   19.0802 O   0  0  0  0  0  0  0  0  0  0  0  0
    5.1894    9.4673   20.7118 C   0  0  0  0  0  0  0  0  0  0  0  0
    7.3773    8.8224   21.4870 C   0  0  0  0  0  0  0  0  0  0  0  0
    8.4391    6.6439   21.0235 C   0  0  0  0  0  0  0  0  0  0  0  0
    9.6494   11.1353   20.4167 C   0  0  0  0  0  0  0  0  0  0  0  0
    8.1431    7.6829   21.9046 C   0  0  0  0  0  0  0  0  0  0  0  0
    7.7796   10.1314   21.5115 N   0  0  0  0  0  0  0  0  0  0  0  0
    9.2768    5.6183   21.4437 C   0  0  0  0  0  0  0  0  0  0  0  0
    8.6315    7.7322   23.1768 C   0  0  0  0  0  0  0  0  0  0  0  0
   13.0537    9.9821   20.5781 C   0  0  0  0  0  0  0  0  0  0  0  0
   10.3850    4.6575   23.2386 O   0  0  0  0  0  0  0  0  0  0  0  0
    4.2069    6.8450   20.7994 C   0  0  0  0  0  0  0  0  0  0  0  0
    3.0726   10.1043   19.8522 O   0  0  0  0  0  0  0  0  0  0  0  0
    5.5057    7.1196   21.1155 C   0  0  0  0  0  0  0  0  0  0  0  0
    7.0367   11.0229   21.9948 O   0  0  0  0  0  0  0  0  0  0  0  0
  1  8  4  0
  1 12  4  0
  2  9  1  0
  2 11  4  0
  2 25  4  0
  3 12  4  0
  3 14  1  0
  3 23  4  0
  4 13  4  0
  4 21  4  0
  4 24  1  0
  5  8  4  0
  5 23  4  0
  6 18  2  0
  7 15  4  0
  7 16  1  0
  7 27  4  0
  8 18  1  0
 10 18  1  0
 10 20  1  0
 11 15  4  0
 11 26  1  0
 13 22  4  0
 16 19  1  0
 16 20  2  0
 17 19  4  0
 17 21  4  0
 19 22  4  0
 20 28  1  0
 25 27  4  0
M  END
$$$$

 Created by Python create_sdf_string function

 28 30  0  0  0  0  0  0  0  0999 V2000
   11.4592   11.2893   18.7941 C   0  0  0  0  0  0  0  0  0  0  0  0
    3.4202    7.9009   20.3866 C   0  0  0  0  0  0  0  0  0  0  0  0
   13.5280   10.3522   19.3586 C   0  0  0  0  0  0  0  0  0  0  0  0
    9.6923    5.6468   22.7891 C   0  0  0  0  0  0  0  0  0  0  0  0
   11.7756   10.2554   20.8841 N   0  0  0  0  0  0  0  0  0  0  0  0
    8.9876   11.9370   19.8757 O   0  0  0  0  0  0  0  0  0  0  0  0
    6.0167    8.4478   21.1089 C   0  0  0  0  0  0  0  0  0  0  0  0
   11.0002   10.8890   20.0262 C   0  0  0  0  0  0  0  0  0  0  0  0
    2.1721    7.7393   20.0315 O   0  0  0  0  0  0  0  0  0  0  0  0
    9.1107   10.3880   21.3769 N   0  0  0  0  0  0  0  0  0  0  0  0
    3.9102    9.2008   20.3124 C   0  0  0  0  0  0  0  0  0  0  0  0
   12.7292   10.9960   18.4597 C   0  0  0  0  0  0  0  0  0  0  0  0
    9.3798    6.6793   23.6625 C   0  0  0  0  0  0  0  0  0  0  0  0
   14.7425   10.0739   19.0802 O   0  0  0  0  0  0  0  0  0  0  0  0
    5.1894    9.4673   20.7118 C   0  0  0  0  0  0  0  0  0  0  0  0
    7.3773    8.8224   21.4870 C   0  0  0  0  0  0  0  0  0  0  0  0
    8.4391    6.6439   21.0235 C   0  0  0  0  0  0  0  0  0  0  0  0
    9.6494   11.1353   20.4167 C   0  0  0  0  0  0  0  0  0  0  0  0
    8.1431    7.6829   21.9046 C   0  0  0  0  0  0  0  0  0  0  0  0
    7.7796   10.1314   21.5115 N   0  0  0  0  0  0  0  0  0  0  0  0
    9.2768    5.6183   21.4437 C   0  0  0  0  0  0  0  0  0  0  0  0
    8.6315    7.7322   23.1768 C   0  0  0  0  0  0  0  0  0  0  0  0
   13.0537    9.9821   20.5781 C   0  0  0  0  0  0  0  0  0  0  0  0
   10.3850    4.6575   23.2386 O   0  0  0  0  0  0  0  0  0  0  0  0
    4.2069    6.8450   20.7994 C   0  0  0  0  0  0  0  0  0  0  0  0
    3.0726   10.1043   19.8522 O   0  0  0  0  0  0  0  0  0  0  0  0
    5.5057    7.1196   21.1155 C   0  0  0  0  0  0  0  0  0  0  0  0
    7.0367   11.0229   21.9948 O   0  0  0  0  0  0  0  0  0  0  0  0
  1  8  4  0
  1 12  4  0
  2  9  1  0
  2 11  4  0
  2 25  4  0
  3 12  4  0
  3 14  1  0
  3 23  4  0
  4 13  4  0
  4 21  4  0
  4 24  1  0
  5  8  4  0
  5 23  4  0
  6 18  2  0
  7 15  4  0
  7 16  1  0
  7 27  4  0
  8 18  1  0
 10 18  1  0
 10 20  1  0
 11 15  4  0
 11 26  1  0
 13 22  4  0
 16 19  1  0
 16 20  2  0
 17 19  4  0
 17 21  4  0
 19 22  4  0
 20 28  1  0
 25 27  4  0
M  END
$$$$

 Created by Python create_sdf_string function

 28 30  0  0  0  0  0  0  0  0999 V2000
   11.4592   11.2893   18.7941 C   0  0  0  0  0  0  0  0  0  0  0  0
    3.4202    7.9009   20.3866 C   0  0  0  0  0  0  0  0  0  0  0  0
   13.5280   10.3522   19.3586 C   0  0  0  0  0  0  0  0  0  0  0  0
    9.6923    5.6468   22.7891 C   0  0  0  0  0  0  0  0  0  0  0  0
   11.7756   10.2554   20.8841 N   0  0  0  0  0  0  0  0  0  0  0  0
    8.9876   11.9370   19.8757 O   0  0  0  0  0  0  0  0  0  0  0  0
    6.0167    8.4478   21.1089 C   0  0  0  0  0  0  0  0  0  0  0  0
   11.0002   10.8890   20.0262 C   0  0  0  0  0  0  0  0  0  0  0  0
    2.1721    7.7393   20.0315 O   0  0  0  0  0  0  0  0  0  0  0  0
    9.1107   10.3880   21.3769 N   0  0  0  0  0  0  0  0  0  0  0  0
    3.9102    9.2008   20.3124 C   0  0  0  0  0  0  0  0  0  0  0  0
   12.7292   10.9960   18.4597 C   0  0  0  0  0  0  0  0  0  0  0  0
    9.3798    6.6793   23.6625 C   0  0  0  0  0  0  0  0  0  0  0  0
   14.7425   10.0739   19.0802 O   0  0  0  0  0  0  0  0  0  0  0  0
    5.1894    9.4673   20.7118 C   0  0  0  0  0  0  0  0  0  0  0  0
    7.3773    8.8224   21.4870 C   0  0  0  0  0  0  0  0  0  0  0  0
    8.4391    6.6439   21.0235 C   0  0  0  0  0  0  0  0  0  0  0  0
    9.6494   11.1353   20.4167 C   0  0  0  0  0  0  0  0  0  0  0  0
    8.1431    7.6829   21.9046 C   0  0  0  0  0  0  0  0  0  0  0  0
    7.7796   10.1314   21.5115 N   0  0  0  0  0  0  0  0  0  0  0  0
    9.2768    5.6183   21.4437 C   0  0  0  0  0  0  0  0  0  0  0  0
    8.6315    7.7322   23.1768 C   0  0  0  0  0  0  0  0  0  0  0  0
   13.0537    9.9821   20.5781 C   0  0  0  0  0  0  0  0  0  0  0  0
   10.3850    4.6575   23.2386 O   0  0  0  0  0  0  0  0  0  0  0  0
    4.2069    6.8450   20.7994 C   0  0  0  0  0  0  0  0  0  0  0  0
    3.0726   10.1043   19.8522 O   0  0  0  0  0  0  0  0  0  0  0  0
    5.5057    7.1196   21.1155 C   0  0  0  0  0  0  0  0  0  0  0  0
    7.0367   11.0229   21.9948 O   0  0  0  0  0  0  0  0  0  0  0  0
  1  8  4  0
  1 12  4  0
  2  9  1  0
  2 11  4  0
  2 25  4  0
  3 12  4  0
  3 14  1  0
  3 23  4  0
  4 13  4  0
  4 21  4  0
  4 24  1  0
  5  8  4  0
  5 23  4  0
  6 18  2  0
  7 15  4  0
  7 16  1  0
  7 27  4  0
  8 18  1  0
 10 18  1  0
 10 20  1  0
 11 15  4  0
 11 26  1  0
 13 22  4  0
 16 19  1  0
 16 20  2  0
 17 19  4  0
 17 21  4  0
 19 22  4  0
 20 28  1  0
 25 27  4  0
M  END
$$$$

 Created by Python create_sdf_string function

 28 30  0  0  0  0  0  0  0  0999 V2000
   11.4592   11.2893   18.7941 C   0  0  0  0  0  0  0  0  0  0  0  0
    3.4202    7.9009   20.3866 C   0  0  0  0  0  0  0  0  0  0  0  0
   13.5280   10.3522   19.3586 C   0  0  0  0  0  0  0  0  0  0  0  0
    9.6923    5.6468   22.7891 C   0  0  0  0  0  0  0  0  0  0  0  0
   11.7756   10.2554   20.8841 N   0  0  0  0  0  0  0  0  0  0  0  0
    8.9876   11.9370   19.8757 O   0  0  0  0  0  0  0  0  0  0  0  0
    6.0167    8.4478   21.1089 C   0  0  0  0  0  0  0  0  0  0  0  0
   11.0002   10.8890   20.0262 C   0  0  0  0  0  0  0  0  0  0  0  0
    2.1721    7.7393   20.0315 O   0  0  0  0  0  0  0  0  0  0  0  0
    9.1107   10.3880   21.3769 N   0  0  0  0  0  0  0  0  0  0  0  0
    3.9102    9.2008   20.3124 C   0  0  0  0  0  0  0  0  0  0  0  0
   12.7292   10.9960   18.4597 C   0  0  0  0  0  0  0  0  0  0  0  0
    9.3798    6.6793   23.6625 C   0  0  0  0  0  0  0  0  0  0  0  0
   14.7425   10.0739   19.0802 O   0  0  0  0  0  0  0  0  0  0  0  0
    5.1894    9.4673   20.7118 C   0  0  0  0  0  0  0  0  0  0  0  0
    7.3773    8.8224   21.4870 C   0  0  0  0  0  0  0  0  0  0  0  0
    8.4391    6.6439   21.0235 C   0  0  0  0  0  0  0  0  0  0  0  0
    9.6494   11.1353   20.4167 C   0  0  0  0  0  0  0  0  0  0  0  0
    8.1431    7.6829   21.9046 C   0  0  0  0  0  0  0  0  0  0  0  0
    7.7796   10.1314   21.5115 N   0  0  0  0  0  0  0  0  0  0  0  0
    9.2768    5.6183   21.4437 C   0  0  0  0  0  0  0  0  0  0  0  0
    8.6315    7.7322   23.1768 C   0  0  0  0  0  0  0  0  0  0  0  0
   13.0537    9.9821   20.5781 C   0  0  0  0  0  0  0  0  0  0  0  0
   10.3850    4.6575   23.2386 O   0  0  0  0  0  0  0  0  0  0  0  0
    4.2069    6.8450   20.7994 C   0  0  0  0  0  0  0  0  0  0  0  0
    3.0726   10.1043   19.8522 O   0  0  0  0  0  0  0  0  0  0  0  0
    5.5057    7.1196   21.1155 C   0  0  0  0  0  0  0  0  0  0  0  0
    7.0367   11.0229   21.9948 O   0  0  0  0  0  0  0  0  0  0  0  0
  1  8  4  0
  1 12  4  0
  2  9  1  0
  2 11  4  0
  2 25  4  0
  3 12  4  0
  3 14  1  0
  3 23  4  0
  4 13  4  0
  4 21  4  0
  4 24  1  0
  5  8  4  0
  5 23  4  0
  6 18  2  0
  7 15  4  0
  7 16  1  0
  7 27  4  0
  8 18  1  0
 10 18  1  0
 10 20  1  0
 11 15  4  0
 11 26  1  0
 13 22  4  0
 16 19  1  0
 16 20  2  0
 17 19  4  0
 17 21  4  0
 19 22  4  0
 20 28  1  0
 25 27  4  0
M  END
$$$$

 Created by Python create_sdf_string function

 28 30  0  0  0  0  0  0  0  0999 V2000
   11.4592   11.2893   18.7941 C   0  0  0  0  0  0  0  0  0  0  0  0
    3.4202    7.9009   20.3866 C   0  0  0  0  0  0  0  0  0  0  0  0
   13.5280   10.3522   19.3586 C   0  0  0  0  0  0  0  0  0  0  0  0
    9.6923    5.6468   22.7891 C   0  0  0  0  0  0  0  0  0  0  0  0
   11.7756   10.2554   20.8841 N   0  0  0  0  0  0  0  0  0  0  0  0
    8.9876   11.9370   19.8757 O   0  0  0  0  0  0  0  0  0  0  0  0
    6.0167    8.4478   21.1089 C   0  0  0  0  0  0  0  0  0  0  0  0
   11.0002   10.8890   20.0262 C   0  0  0  0  0  0  0  0  0  0  0  0
    2.1721    7.7393   20.0315 O   0  0  0  0  0  0  0  0  0  0  0  0
    9.1107   10.3880   21.3769 N   0  0  0  0  0  0  0  0  0  0  0  0
    3.9102    9.2008   20.3124 C   0  0  0  0  0  0  0  0  0  0  0  0
   12.7292   10.9960   18.4597 C   0  0  0  0  0  0  0  0  0  0  0  0
    9.3798    6.6793   23.6625 C   0  0  0  0  0  0  0  0  0  0  0  0
   14.7425   10.0739   19.0802 O   0  0  0  0  0  0  0  0  0  0  0  0
    5.1894    9.4673   20.7118 C   0  0  0  0  0  0  0  0  0  0  0  0
    7.3773    8.8224   21.4870 C   0  0  0  0  0  0  0  0  0  0  0  0
    8.4391    6.6439   21.0235 C   0  0  0  0  0  0  0  0  0  0  0  0
    9.6494   11.1353   20.4167 C   0  0  0  0  0  0  0  0  0  0  0  0
    8.1431    7.6829   21.9046 C   0  0  0  0  0  0  0  0  0  0  0  0
    7.7796   10.1314   21.5115 N   0  0  0  0  0  0  0  0  0  0  0  0
    9.2768    5.6183   21.4437 C   0  0  0  0  0  0  0  0  0  0  0  0
    8.6315    7.7322   23.1768 C   0  0  0  0  0  0  0  0  0  0  0  0
   13.0537    9.9821   20.5781 C   0  0  0  0  0  0  0  0  0  0  0  0
   10.3850    4.6575   23.2386 O   0  0  0  0  0  0  0  0  0  0  0  0
    4.2069    6.8450   20.7994 C   0  0  0  0  0  0  0  0  0  0  0  0
    3.0726   10.1043   19.8522 O   0  0  0  0  0  0  0  0  0  0  0  0
    5.5057    7.1196   21.1155 C   0  0  0  0  0  0  0  0  0  0  0  0
    7.0367   11.0229   21.9948 O   0  0  0  0  0  0  0  0  0  0  0  0
  1  8  4  0
  1 12  4  0
  2  9  1  0
  2 11  4  0
  2 25  4  0
  3 12  4  0
  3 14  1  0
  3 23  4  0
  4 13  4  0
  4 21  4  0
  4 24  1  0
  5  8  4  0
  5 23  4  0
  6 18  2  0
  7 15  4  0
  7 16  1  0
  7 27  4  0
  8 18  1  0
 10 18  1  0
 10 20  1  0
 11 15  4  0
 11 26  1  0
 13 22  4  0
 16 19  1  0
 16 20  2  0
 17 19  4  0
 17 21  4  0
 19 22  4  0
 20 28  1  0
 25 27  4  0
M  END
$$$$

 Created by Python create_sdf_string function

 28 30  0  0  0  0  0  0  0  0999 V2000
   11.4592   11.2893   18.7941 C   0  0  0  0  0  0  0  0  0  0  0  0
    3.4202    7.9009   20.3866 C   0  0  0  0  0  0  0  0  0  0  0  0
   13.5280   10.3522   19.3586 C   0  0  0  0  0  0  0  0  0  0  0  0
    9.6923    5.6468   22.7891 C   0  0  0  0  0  0  0  0  0  0  0  0
   11.7756   10.2554   20.8841 N   0  0  0  0  0  0  0  0  0  0  0  0
    8.9876   11.9370   19.8757 O   0  0  0  0  0  0  0  0  0  0  0  0
    6.0167    8.4478   21.1089 C   0  0  0  0  0  0  0  0  0  0  0  0
   11.0002   10.8890   20.0262 C   0  0  0  0  0  0  0  0  0  0  0  0
    2.1721    7.7393   20.0315 O   0  0  0  0  0  0  0  0  0  0  0  0
    9.1107   10.3880   21.3769 N   0  0  0  0  0  0  0  0  0  0  0  0
    3.9102    9.2008   20.3124 C   0  0  0  0  0  0  0  0  0  0  0  0
   12.7292   10.9960   18.4597 C   0  0  0  0  0  0  0  0  0  0  0  0
    9.3798    6.6793   23.6625 C   0  0  0  0  0  0  0  0  0  0  0  0
   14.7425   10.0739   19.0802 O   0  0  0  0  0  0  0  0  0  0  0  0
    5.1894    9.4673   20.7118 C   0  0  0  0  0  0  0  0  0  0  0  0
    7.3773    8.8224   21.4870 C   0  0  0  0  0  0  0  0  0  0  0  0
    8.4391    6.6439   21.0235 C   0  0  0  0  0  0  0  0  0  0  0  0
    9.6494   11.1353   20.4167 C   0  0  0  0  0  0  0  0  0  0  0  0
    8.1431    7.6829   21.9046 C   0  0  0  0  0  0  0  0  0  0  0  0
    7.7796   10.1314   21.5115 N   0  0  0  0  0  0  0  0  0  0  0  0
    9.2768    5.6183   21.4437 C   0  0  0  0  0  0  0  0  0  0  0  0
    8.6315    7.7322   23.1768 C   0  0  0  0  0  0  0  0  0  0  0  0
   13.0537    9.9821   20.5781 C   0  0  0  0  0  0  0  0  0  0  0  0
   10.3850    4.6575   23.2386 O   0  0  0  0  0  0  0  0  0  0  0  0
    4.2069    6.8450   20.7994 C   0  0  0  0  0  0  0  0  0  0  0  0
    3.0726   10.1043   19.8522 O   0  0  0  0  0  0  0  0  0  0  0  0
    5.5057    7.1196   21.1155 C   0  0  0  0  0  0  0  0  0  0  0  0
    7.0367   11.0229   21.9948 O   0  0  0  0  0  0  0  0  0  0  0  0
  1  8  4  0
  1 12  4  0
  2  9  1  0
  2 11  4  0
  2 25  4  0
  3 12  4  0
  3 14  1  0
  3 23  4  0
  4 13  4  0
  4 21  4  0
  4 24  1  0
  5  8  4  0
  5 23  4  0
  6 18  2  0
  7 15  4  0
  7 16  1  0
  7 27  4  0
  8 18  1  0
 10 18  1  0
 10 20  1  0
 11 15  4  0
 11 26  1  0
 13 22  4  0
 16 19  1  0
 16 20  2  0
 17 19  4  0
 17 21  4  0
 19 22  4  0
 20 28  1  0
 25 27  4  0
M  END
$$$$

 Created by Python create_sdf_string function

 28 30  0  0  0  0  0  0  0  0999 V2000
   11.4592   11.2893   18.7941 C   0  0  0  0  0  0  0  0  0  0  0  0
    3.4202    7.9009   20.3866 C   0  0  0  0  0  0  0  0  0  0  0  0
   13.5280   10.3522   19.3586 C   0  0  0  0  0  0  0  0  0  0  0  0
    9.6923    5.6468   22.7891 C   0  0  0  0  0  0  0  0  0  0  0  0
   11.7756   10.2554   20.8841 N   0  0  0  0  0  0  0  0  0  0  0  0
    8.9876   11.9370   19.8757 O   0  0  0  0  0  0  0  0  0  0  0  0
    6.0167    8.4478   21.1089 C   0  0  0  0  0  0  0  0  0  0  0  0
   11.0002   10.8890   20.0262 C   0  0  0  0  0  0  0  0  0  0  0  0
    2.1721    7.7393   20.0315 O   0  0  0  0  0  0  0  0  0  0  0  0
    9.1107   10.3880   21.3769 N   0  0  0  0  0  0  0  0  0  0  0  0
    3.9102    9.2008   20.3124 C   0  0  0  0  0  0  0  0  0  0  0  0
   12.7292   10.9960   18.4597 C   0  0  0  0  0  0  0  0  0  0  0  0
    9.3798    6.6793   23.6625 C   0  0  0  0  0  0  0  0  0  0  0  0
   14.7425   10.0739   19.0802 O   0  0  0  0  0  0  0  0  0  0  0  0
    5.1894    9.4673   20.7118 C   0  0  0  0  0  0  0  0  0  0  0  0
    7.3773    8.8224   21.4870 C   0  0  0  0  0  0  0  0  0  0  0  0
    8.4391    6.6439   21.0235 C   0  0  0  0  0  0  0  0  0  0  0  0
    9.6494   11.1353   20.4167 C   0  0  0  0  0  0  0  0  0  0  0  0
    8.1431    7.6829   21.9046 C   0  0  0  0  0  0  0  0  0  0  0  0
    7.7796   10.1314   21.5115 N   0  0  0  0  0  0  0  0  0  0  0  0
    9.2768    5.6183   21.4437 C   0  0  0  0  0  0  0  0  0  0  0  0
    8.6315    7.7322   23.1768 C   0  0  0  0  0  0  0  0  0  0  0  0
   13.0537    9.9821   20.5781 C   0  0  0  0  0  0  0  0  0  0  0  0
   10.3850    4.6575   23.2386 O   0  0  0  0  0  0  0  0  0  0  0  0
    4.2069    6.8450   20.7994 C   0  0  0  0  0  0  0  0  0  0  0  0
    3.0726   10.1043   19.8522 O   0  0  0  0  0  0  0  0  0  0  0  0
    5.5057    7.1196   21.1155 C   0  0  0  0  0  0  0  0  0  0  0  0
    7.0367   11.0229   21.9948 O   0  0  0  0  0  0  0  0  0  0  0  0
  1  8  4  0
  1 12  4  0
  2  9  1  0
  2 11  4  0
  2 25  4  0
  3 12  4  0
  3 14  1  0
  3 23  4  0
  4 13  4  0
  4 21  4  0
  4 24  1  0
  5  8  4  0
  5 23  4  0
  6 18  2  0
  7 15  4  0
  7 16  1  0
  7 27  4  0
  8 18  1  0
 10 18  1  0
 10 20  1  0
 11 15  4  0
 11 26  1  0
 13 22  4  0
 16 19  1  0
 16 20  2  0
 17 19  4  0
 17 21  4  0
 19 22  4  0
 20 28  1  0
 25 27  4  0
M  END
$$$$

 Created by Python create_sdf_string function

 28 30  0  0  0  0  0  0  0  0999 V2000
   11.4592   11.2893   18.7941 C   0  0  0  0  0  0  0  0  0  0  0  0
    3.4202    7.9009   20.3866 C   0  0  0  0  0  0  0  0  0  0  0  0
   13.5280   10.3522   19.3586 C   0  0  0  0  0  0  0  0  0  0  0  0
    9.6923    5.6468   22.7891 C   0  0  0  0  0  0  0  0  0  0  0  0
   11.7756   10.2554   20.8841 N   0  0  0  0  0  0  0  0  0  0  0  0
    8.9876   11.9370   19.8757 O   0  0  0  0  0  0  0  0  0  0  0  0
    6.0167    8.4478   21.1089 C   0  0  0  0  0  0  0  0  0  0  0  0
   11.0002   10.8890   20.0262 C   0  0  0  0  0  0  0  0  0  0  0  0
    2.1721    7.7393   20.0315 O   0  0  0  0  0  0  0  0  0  0  0  0
    9.1107   10.3880   21.3769 N   0  0  0  0  0  0  0  0  0  0  0  0
    3.9102    9.2008   20.3124 C   0  0  0  0  0  0  0  0  0  0  0  0
   12.7292   10.9960   18.4597 C   0  0  0  0  0  0  0  0  0  0  0  0
    9.3798    6.6793   23.6625 C   0  0  0  0  0  0  0  0  0  0  0  0
   14.7425   10.0739   19.0802 O   0  0  0  0  0  0  0  0  0  0  0  0
    5.1894    9.4673   20.7118 C   0  0  0  0  0  0  0  0  0  0  0  0
    7.3773    8.8224   21.4870 C   0  0  0  0  0  0  0  0  0  0  0  0
    8.4391    6.6439   21.0235 C   0  0  0  0  0  0  0  0  0  0  0  0
    9.6494   11.1353   20.4167 C   0  0  0  0  0  0  0  0  0  0  0  0
    8.1431    7.6829   21.9046 C   0  0  0  0  0  0  0  0  0  0  0  0
    7.7796   10.1314   21.5115 N   0  0  0  0  0  0  0  0  0  0  0  0
    9.2768    5.6183   21.4437 C   0  0  0  0  0  0  0  0  0  0  0  0
    8.6315    7.7322   23.1768 C   0  0  0  0  0  0  0  0  0  0  0  0
   13.0537    9.9821   20.5781 C   0  0  0  0  0  0  0  0  0  0  0  0
   10.3850    4.6575   23.2386 O   0  0  0  0  0  0  0  0  0  0  0  0
    4.2069    6.8450   20.7994 C   0  0  0  0  0  0  0  0  0  0  0  0
    3.0726   10.1043   19.8522 O   0  0  0  0  0  0  0  0  0  0  0  0
    5.5057    7.1196   21.1155 C   0  0  0  0  0  0  0  0  0  0  0  0
    7.0367   11.0229   21.9948 O   0  0  0  0  0  0  0  0  0  0  0  0
  1  8  4  0
  1 12  4  0
  2  9  1  0
  2 11  4  0
  2 25  4  0
  3 12  4  0
  3 14  1  0
  3 23  4  0
  4 13  4  0
  4 21  4  0
  4 24  1  0
  5  8  4  0
  5 23  4  0
  6 18  2  0
  7 15  4  0
  7 16  1  0
  7 27  4  0
  8 18  1  0
 10 18  1  0
 10 20  1  0
 11 15  4  0
 11 26  1  0
 13 22  4  0
 16 19  1  0
 16 20  2  0
 17 19  4  0
 17 21  4  0
 19 22  4  0
 20 28  1  0
 25 27  4  0
M  END
$$$$

 Created by Python create_sdf_string function

 28 30  0  0  0  0  0  0  0  0999 V2000
   11.4592   11.2893   18.7941 C   0  0  0  0  0  0  0  0  0  0  0  0
    3.4202    7.9009   20.3866 C   0  0  0  0  0  0  0  0  0  0  0  0
   13.5280   10.3522   19.3586 C   0  0  0  0  0  0  0  0  0  0  0  0
    9.6923    5.6468   22.7891 C   0  0  0  0  0  0  0  0  0  0  0  0
   11.7756   10.2554   20.8841 N   0  0  0  0  0  0  0  0  0  0  0  0
    8.9876   11.9370   19.8757 O   0  0  0  0  0  0  0  0  0  0  0  0
    6.0167    8.4478   21.1089 C   0  0  0  0  0  0  0  0  0  0  0  0
   11.0002   10.8890   20.0262 C   0  0  0  0  0  0  0  0  0  0  0  0
    2.1721    7.7393   20.0315 O   0  0  0  0  0  0  0  0  0  0  0  0
    9.1107   10.3880   21.3769 N   0  0  0  0  0  0  0  0  0  0  0  0
    3.9102    9.2008   20.3124 C   0  0  0  0  0  0  0  0  0  0  0  0
   12.7292   10.9960   18.4597 C   0  0  0  0  0  0  0  0  0  0  0  0
    9.3798    6.6793   23.6625 C   0  0  0  0  0  0  0  0  0  0  0  0
   14.7425   10.0739   19.0802 O   0  0  0  0  0  0  0  0  0  0  0  0
    5.1894    9.4673   20.7118 C   0  0  0  0  0  0  0  0  0  0  0  0
    7.3773    8.8224   21.4870 C   0  0  0  0  0  0  0  0  0  0  0  0
    8.4391    6.6439   21.0235 C   0  0  0  0  0  0  0  0  0  0  0  0
    9.6494   11.1353   20.4167 C   0  0  0  0  0  0  0  0  0  0  0  0
    8.1431    7.6829   21.9046 C   0  0  0  0  0  0  0  0  0  0  0  0
    7.7796   10.1314   21.5115 N   0  0  0  0  0  0  0  0  0  0  0  0
    9.2768    5.6183   21.4437 C   0  0  0  0  0  0  0  0  0  0  0  0
    8.6315    7.7322   23.1768 C   0  0  0  0  0  0  0  0  0  0  0  0
   13.0537    9.9821   20.5781 C   0  0  0  0  0  0  0  0  0  0  0  0
   10.3850    4.6575   23.2386 O   0  0  0  0  0  0  0  0  0  0  0  0
    4.2069    6.8450   20.7994 C   0  0  0  0  0  0  0  0  0  0  0  0
    3.0726   10.1043   19.8522 O   0  0  0  0  0  0  0  0  0  0  0  0
    5.5057    7.1196   21.1155 C   0  0  0  0  0  0  0  0  0  0  0  0
    7.0367   11.0229   21.9948 O   0  0  0  0  0  0  0  0  0  0  0  0
  1  8  4  0
  1 12  4  0
  2  9  1  0
  2 11  4  0
  2 25  4  0
  3 12  4  0
  3 14  1  0
  3 23  4  0
  4 13  4  0
  4 21  4  0
  4 24  1  0
  5  8  4  0
  5 23  4  0
  6 18  2  0
  7 15  4  0
  7 16  1  0
  7 27  4  0
  8 18  1  0
 10 18  1  0
 10 20  1  0
 11 15  4  0
 11 26  1  0
 13 22  4  0
 16 19  1  0
 16 20  2  0
 17 19  4  0
 17 21  4  0
 19 22  4  0
 20 28  1  0
 25 27  4  0
M  END
$$$$

 Created by Python create_sdf_string function

 28 30  0  0  0  0  0  0  0  0999 V2000
   11.4592   11.2893   18.7941 C   0  0  0  0  0  0  0  0  0  0  0  0
    3.4202    7.9009   20.3866 C   0  0  0  0  0  0  0  0  0  0  0  0
   13.5280   10.3522   19.3586 C   0  0  0  0  0  0  0  0  0  0  0  0
    9.6923    5.6468   22.7891 C   0  0  0  0  0  0  0  0  0  0  0  0
   11.7756   10.2554   20.8841 N   0  0  0  0  0  0  0  0  0  0  0  0
    8.9876   11.9370   19.8757 O   0  0  0  0  0  0  0  0  0  0  0  0
    6.0167    8.4478   21.1089 C   0  0  0  0  0  0  0  0  0  0  0  0
   11.0002   10.8890   20.0262 C   0  0  0  0  0  0  0  0  0  0  0  0
    2.1721    7.7393   20.0315 O   0  0  0  0  0  0  0  0  0  0  0  0
    9.1107   10.3880   21.3769 N   0  0  0  0  0  0  0  0  0  0  0  0
    3.9102    9.2008   20.3124 C   0  0  0  0  0  0  0  0  0  0  0  0
   12.7292   10.9960   18.4597 C   0  0  0  0  0  0  0  0  0  0  0  0
    9.3798    6.6793   23.6625 C   0  0  0  0  0  0  0  0  0  0  0  0
   14.7425   10.0739   19.0802 O   0  0  0  0  0  0  0  0  0  0  0  0
    5.1894    9.4673   20.7118 C   0  0  0  0  0  0  0  0  0  0  0  0
    7.3773    8.8224   21.4870 C   0  0  0  0  0  0  0  0  0  0  0  0
    8.4391    6.6439   21.0235 C   0  0  0  0  0  0  0  0  0  0  0  0
    9.6494   11.1353   20.4167 C   0  0  0  0  0  0  0  0  0  0  0  0
    8.1431    7.6829   21.9046 C   0  0  0  0  0  0  0  0  0  0  0  0
    7.7796   10.1314   21.5115 N   0  0  0  0  0  0  0  0  0  0  0  0
    9.2768    5.6183   21.4437 C   0  0  0  0  0  0  0  0  0  0  0  0
    8.6315    7.7322   23.1768 C   0  0  0  0  0  0  0  0  0  0  0  0
   13.0537    9.9821   20.5781 C   0  0  0  0  0  0  0  0  0  0  0  0
   10.3850    4.6575   23.2386 O   0  0  0  0  0  0  0  0  0  0  0  0
    4.2069    6.8450   20.7994 C   0  0  0  0  0  0  0  0  0  0  0  0
    3.0726   10.1043   19.8522 O   0  0  0  0  0  0  0  0  0  0  0  0
    5.5057    7.1196   21.1155 C   0  0  0  0  0  0  0  0  0  0  0  0
    7.0367   11.0229   21.9948 O   0  0  0  0  0  0  0  0  0  0  0  0
  1  8  4  0
  1 12  4  0
  2  9  1  0
  2 11  4  0
  2 25  4  0
  3 12  4  0
  3 14  1  0
  3 23  4  0
  4 13  4  0
  4 21  4  0
  4 24  1  0
  5  8  4  0
  5 23  4  0
  6 18  2  0
  7 15  4  0
  7 16  1  0
  7 27  4  0
  8 18  1  0
 10 18  1  0
 10 20  1  0
 11 15  4  0
 11 26  1  0
 13 22  4  0
 16 19  1  0
 16 20  2  0
 17 19  4  0
 17 21  4  0
 19 22  4  0
 20 28  1  0
 25 27  4  0
M  END
$$$$

 Created by Python create_sdf_string function

 28 30  0  0  0  0  0  0  0  0999 V2000
   11.4592   11.2893   18.7941 C   0  0  0  0  0  0  0  0  0  0  0  0
    3.4202    7.9009   20.3866 C   0  0  0  0  0  0  0  0  0  0  0  0
   13.5280   10.3522   19.3586 C   0  0  0  0  0  0  0  0  0  0  0  0
    9.6923    5.6468   22.7891 C   0  0  0  0  0  0  0  0  0  0  0  0
   11.7756   10.2554   20.8841 N   0  0  0  0  0  0  0  0  0  0  0  0
    8.9876   11.9370   19.8757 O   0  0  0  0  0  0  0  0  0  0  0  0
    6.0167    8.4478   21.1089 C   0  0  0  0  0  0  0  0  0  0  0  0
   11.0002   10.8890   20.0262 C   0  0  0  0  0  0  0  0  0  0  0  0
    2.1721    7.7393   20.0315 O   0  0  0  0  0  0  0  0  0  0  0  0
    9.1107   10.3880   21.3769 N   0  0  0  0  0  0  0  0  0  0  0  0
    3.9102    9.2008   20.3124 C   0  0  0  0  0  0  0  0  0  0  0  0
   12.7292   10.9960   18.4597 C   0  0  0  0  0  0  0  0  0  0  0  0
    9.3798    6.6793   23.6625 C   0  0  0  0  0  0  0  0  0  0  0  0
   14.7425   10.0739   19.0802 O   0  0  0  0  0  0  0  0  0  0  0  0
    5.1894    9.4673   20.7118 C   0  0  0  0  0  0  0  0  0  0  0  0
    7.3773    8.8224   21.4870 C   0  0  0  0  0  0  0  0  0  0  0  0
    8.4391    6.6439   21.0235 C   0  0  0  0  0  0  0  0  0  0  0  0
    9.6494   11.1353   20.4167 C   0  0  0  0  0  0  0  0  0  0  0  0
    8.1431    7.6829   21.9046 C   0  0  0  0  0  0  0  0  0  0  0  0
    7.7796   10.1314   21.5115 N   0  0  0  0  0  0  0  0  0  0  0  0
    9.2768    5.6183   21.4437 C   0  0  0  0  0  0  0  0  0  0  0  0
    8.6315    7.7322   23.1768 C   0  0  0  0  0  0  0  0  0  0  0  0
   13.0537    9.9821   20.5781 C   0  0  0  0  0  0  0  0  0  0  0  0
   10.3850    4.6575   23.2386 O   0  0  0  0  0  0  0  0  0  0  0  0
    4.2069    6.8450   20.7994 C   0  0  0  0  0  0  0  0  0  0  0  0
    3.0726   10.1043   19.8522 O   0  0  0  0  0  0  0  0  0  0  0  0
    5.5057    7.1196   21.1155 C   0  0  0  0  0  0  0  0  0  0  0  0
    7.0367   11.0229   21.9948 O   0  0  0  0  0  0  0  0  0  0  0  0
  1  8  4  0
  1 12  4  0
  2  9  1  0
  2 11  4  0
  2 25  4  0
  3 12  4  0
  3 14  1  0
  3 23  4  0
  4 13  4  0
  4 21  4  0
  4 24  1  0
  5  8  4  0
  5 23  4  0
  6 18  2  0
  7 15  4  0
  7 16  1  0
  7 27  4  0
  8 18  1  0
 10 18  1  0
 10 20  1  0
 11 15  4  0
 11 26  1  0
 13 22  4  0
 16 19  1  0
 16 20  2  0
 17 19  4  0
 17 21  4  0
 19 22  4  0
 20 28  1  0
 25 27  4  0
M  END
$$$$

 Created by Python create_sdf_string function

 28 30  0  0  0  0  0  0  0  0999 V2000
   11.4592   11.2893   18.7941 C   0  0  0  0  0  0  0  0  0  0  0  0
    3.4202    7.9009   20.3866 C   0  0  0  0  0  0  0  0  0  0  0  0
   13.5280   10.3522   19.3586 C   0  0  0  0  0  0  0  0  0  0  0  0
    9.6923    5.6468   22.7891 C   0  0  0  0  0  0  0  0  0  0  0  0
   11.7756   10.2554   20.8841 N   0  0  0  0  0  0  0  0  0  0  0  0
    8.9876   11.9370   19.8757 O   0  0  0  0  0  0  0  0  0  0  0  0
    6.0167    8.4478   21.1089 C   0  0  0  0  0  0  0  0  0  0  0  0
   11.0002   10.8890   20.0262 C   0  0  0  0  0  0  0  0  0  0  0  0
    2.1721    7.7393   20.0315 O   0  0  0  0  0  0  0  0  0  0  0  0
    9.1107   10.3880   21.3769 N   0  0  0  0  0  0  0  0  0  0  0  0
    3.9102    9.2008   20.3124 C   0  0  0  0  0  0  0  0  0  0  0  0
   12.7292   10.9960   18.4597 C   0  0  0  0  0  0  0  0  0  0  0  0
    9.3798    6.6793   23.6625 C   0  0  0  0  0  0  0  0  0  0  0  0
   14.7425   10.0739   19.0802 O   0  0  0  0  0  0  0  0  0  0  0  0
    5.1894    9.4673   20.7118 C   0  0  0  0  0  0  0  0  0  0  0  0
    7.3773    8.8224   21.4870 C   0  0  0  0  0  0  0  0  0  0  0  0
    8.4391    6.6439   21.0235 C   0  0  0  0  0  0  0  0  0  0  0  0
    9.6494   11.1353   20.4167 C   0  0  0  0  0  0  0  0  0  0  0  0
    8.1431    7.6829   21.9046 C   0  0  0  0  0  0  0  0  0  0  0  0
    7.7796   10.1314   21.5115 N   0  0  0  0  0  0  0  0  0  0  0  0
    9.2768    5.6183   21.4437 C   0  0  0  0  0  0  0  0  0  0  0  0
    8.6315    7.7322   23.1768 C   0  0  0  0  0  0  0  0  0  0  0  0
   13.0537    9.9821   20.5781 C   0  0  0  0  0  0  0  0  0  0  0  0
   10.3850    4.6575   23.2386 O   0  0  0  0  0  0  0  0  0  0  0  0
    4.2069    6.8450   20.7994 C   0  0  0  0  0  0  0  0  0  0  0  0
    3.0726   10.1043   19.8522 O   0  0  0  0  0  0  0  0  0  0  0  0
    5.5057    7.1196   21.1155 C   0  0  0  0  0  0  0  0  0  0  0  0
    7.0367   11.0229   21.9948 O   0  0  0  0  0  0  0  0  0  0  0  0
  1  8  4  0
  1 12  4  0
  2  9  1  0
  2 11  4  0
  2 25  4  0
  3 12  4  0
  3 14  1  0
  3 23  4  0
  4 13  4  0
  4 21  4  0
  4 24  1  0
  5  8  4  0
  5 23  4  0
  6 18  2  0
  7 15  4  0
  7 16  1  0
  7 27  4  0
  8 18  1  0
 10 18  1  0
 10 20  1  0
 11 15  4  0
 11 26  1  0
 13 22  4  0
 16 19  1  0
 16 20  2  0
 17 19  4  0
 17 21  4  0
 19 22  4  0
 20 28  1  0
 25 27  4  0
M  END
$$$$

 Created by Python create_sdf_string function

 28 30  0  0  0  0  0  0  0  0999 V2000
   11.4592   11.2893   18.7941 C   0  0  0  0  0  0  0  0  0  0  0  0
    3.4202    7.9009   20.3866 C   0  0  0  0  0  0  0  0  0  0  0  0
   13.5280   10.3522   19.3586 C   0  0  0  0  0  0  0  0  0  0  0  0
    9.6923    5.6468   22.7891 C   0  0  0  0  0  0  0  0  0  0  0  0
   11.7756   10.2554   20.8841 N   0  0  0  0  0  0  0  0  0  0  0  0
    8.9876   11.9370   19.8757 O   0  0  0  0  0  0  0  0  0  0  0  0
    6.0167    8.4478   21.1089 C   0  0  0  0  0  0  0  0  0  0  0  0
   11.0002   10.8890   20.0262 C   0  0  0  0  0  0  0  0  0  0  0  0
    2.1721    7.7393   20.0315 O   0  0  0  0  0  0  0  0  0  0  0  0
    9.1107   10.3880   21.3769 N   0  0  0  0  0  0  0  0  0  0  0  0
    3.9102    9.2008   20.3124 C   0  0  0  0  0  0  0  0  0  0  0  0
   12.7292   10.9960   18.4597 C   0  0  0  0  0  0  0  0  0  0  0  0
    9.3798    6.6793   23.6625 C   0  0  0  0  0  0  0  0  0  0  0  0
   14.7425   10.0739   19.0802 O   0  0  0  0  0  0  0  0  0  0  0  0
    5.1894    9.4673   20.7118 C   0  0  0  0  0  0  0  0  0  0  0  0
    7.3773    8.8224   21.4870 C   0  0  0  0  0  0  0  0  0  0  0  0
    8.4391    6.6439   21.0235 C   0  0  0  0  0  0  0  0  0  0  0  0
    9.6494   11.1353   20.4167 C   0  0  0  0  0  0  0  0  0  0  0  0
    8.1431    7.6829   21.9046 C   0  0  0  0  0  0  0  0  0  0  0  0
    7.7796   10.1314   21.5115 N   0  0  0  0  0  0  0  0  0  0  0  0
    9.2768    5.6183   21.4437 C   0  0  0  0  0  0  0  0  0  0  0  0
    8.6315    7.7322   23.1768 C   0  0  0  0  0  0  0  0  0  0  0  0
   13.0537    9.9821   20.5781 C   0  0  0  0  0  0  0  0  0  0  0  0
   10.3850    4.6575   23.2386 O   0  0  0  0  0  0  0  0  0  0  0  0
    4.2069    6.8450   20.7994 C   0  0  0  0  0  0  0  0  0  0  0  0
    3.0726   10.1043   19.8522 O   0  0  0  0  0  0  0  0  0  0  0  0
    5.5057    7.1196   21.1155 C   0  0  0  0  0  0  0  0  0  0  0  0
    7.0367   11.0229   21.9948 O   0  0  0  0  0  0  0  0  0  0  0  0
  1  8  4  0
  1 12  4  0
  2  9  1  0
  2 11  4  0
  2 25  4  0
  3 12  4  0
  3 14  1  0
  3 23  4  0
  4 13  4  0
  4 21  4  0
  4 24  1  0
  5  8  4  0
  5 23  4  0
  6 18  2  0
  7 15  4  0
  7 16  1  0
  7 27  4  0
  8 18  1  0
 10 18  1  0
 10 20  1  0
 11 15  4  0
 11 26  1  0
 13 22  4  0
 16 19  1  0
 16 20  2  0
 17 19  4  0
 17 21  4  0
 19 22  4  0
 20 28  1  0
 25 27  4  0
M  END
$$$$

 Created by Python create_sdf_string function

 28 30  0  0  0  0  0  0  0  0999 V2000
   11.4592   11.2893   18.7941 C   0  0  0  0  0  0  0  0  0  0  0  0
    3.4202    7.9009   20.3866 C   0  0  0  0  0  0  0  0  0  0  0  0
   13.5280   10.3522   19.3586 C   0  0  0  0  0  0  0  0  0  0  0  0
    9.6923    5.6468   22.7891 C   0  0  0  0  0  0  0  0  0  0  0  0
   11.7756   10.2554   20.8841 N   0  0  0  0  0  0  0  0  0  0  0  0
    8.9876   11.9370   19.8757 O   0  0  0  0  0  0  0  0  0  0  0  0
    6.0167    8.4478   21.1089 C   0  0  0  0  0  0  0  0  0  0  0  0
   11.0002   10.8890   20.0262 C   0  0  0  0  0  0  0  0  0  0  0  0
    2.1721    7.7393   20.0315 O   0  0  0  0  0  0  0  0  0  0  0  0
    9.1107   10.3880   21.3769 N   0  0  0  0  0  0  0  0  0  0  0  0
    3.9102    9.2008   20.3124 C   0  0  0  0  0  0  0  0  0  0  0  0
   12.7292   10.9960   18.4597 C   0  0  0  0  0  0  0  0  0  0  0  0
    9.3798    6.6793   23.6625 C   0  0  0  0  0  0  0  0  0  0  0  0
   14.7425   10.0739   19.0802 O   0  0  0  0  0  0  0  0  0  0  0  0
    5.1894    9.4673   20.7118 C   0  0  0  0  0  0  0  0  0  0  0  0
    7.3773    8.8224   21.4870 C   0  0  0  0  0  0  0  0  0  0  0  0
    8.4391    6.6439   21.0235 C   0  0  0  0  0  0  0  0  0  0  0  0
    9.6494   11.1353   20.4167 C   0  0  0  0  0  0  0  0  0  0  0  0
    8.1431    7.6829   21.9046 C   0  0  0  0  0  0  0  0  0  0  0  0
    7.7796   10.1314   21.5115 N   0  0  0  0  0  0  0  0  0  0  0  0
    9.2768    5.6183   21.4437 C   0  0  0  0  0  0  0  0  0  0  0  0
    8.6315    7.7322   23.1768 C   0  0  0  0  0  0  0  0  0  0  0  0
   13.0537    9.9821   20.5781 C   0  0  0  0  0  0  0  0  0  0  0  0
   10.3850    4.6575   23.2386 O   0  0  0  0  0  0  0  0  0  0  0  0
    4.2069    6.8450   20.7994 C   0  0  0  0  0  0  0  0  0  0  0  0
    3.0726   10.1043   19.8522 O   0  0  0  0  0  0  0  0  0  0  0  0
    5.5057    7.1196   21.1155 C   0  0  0  0  0  0  0  0  0  0  0  0
    7.0367   11.0229   21.9948 O   0  0  0  0  0  0  0  0  0  0  0  0
  1  8  4  0
  1 12  4  0
  2  9  1  0
  2 11  4  0
  2 25  4  0
  3 12  4  0
  3 14  1  0
  3 23  4  0
  4 13  4  0
  4 21  4  0
  4 24  1  0
  5  8  4  0
  5 23  4  0
  6 18  2  0
  7 15  4  0
  7 16  1  0
  7 27  4  0
  8 18  1  0
 10 18  1  0
 10 20  1  0
 11 15  4  0
 11 26  1  0
 13 22  4  0
 16 19  1  0
 16 20  2  0
 17 19  4  0
 17 21  4  0
 19 22  4  0
 20 28  1  0
 25 27  4  0
M  END
$$$$

 Created by Python create_sdf_string function

 28 30  0  0  0  0  0  0  0  0999 V2000
   11.4592   11.2893   18.7941 C   0  0  0  0  0  0  0  0  0  0  0  0
    3.4202    7.9009   20.3866 C   0  0  0  0  0  0  0  0  0  0  0  0
   13.5280   10.3522   19.3586 C   0  0  0  0  0  0  0  0  0  0  0  0
    9.6923    5.6468   22.7891 C   0  0  0  0  0  0  0  0  0  0  0  0
   11.7756   10.2554   20.8841 N   0  0  0  0  0  0  0  0  0  0  0  0
    8.9876   11.9370   19.8757 O   0  0  0  0  0  0  0  0  0  0  0  0
    6.0167    8.4478   21.1089 C   0  0  0  0  0  0  0  0  0  0  0  0
   11.0002   10.8890   20.0262 C   0  0  0  0  0  0  0  0  0  0  0  0
    2.1721    7.7393   20.0315 O   0  0  0  0  0  0  0  0  0  0  0  0
    9.1107   10.3880   21.3769 N   0  0  0  0  0  0  0  0  0  0  0  0
    3.9102    9.2008   20.3124 C   0  0  0  0  0  0  0  0  0  0  0  0
   12.7292   10.9960   18.4597 C   0  0  0  0  0  0  0  0  0  0  0  0
    9.3798    6.6793   23.6625 C   0  0  0  0  0  0  0  0  0  0  0  0
   14.7425   10.0739   19.0802 O   0  0  0  0  0  0  0  0  0  0  0  0
    5.1894    9.4673   20.7118 C   0  0  0  0  0  0  0  0  0  0  0  0
    7.3773    8.8224   21.4870 C   0  0  0  0  0  0  0  0  0  0  0  0
    8.4391    6.6439   21.0235 C   0  0  0  0  0  0  0  0  0  0  0  0
    9.6494   11.1353   20.4167 C   0  0  0  0  0  0  0  0  0  0  0  0
    8.1431    7.6829   21.9046 C   0  0  0  0  0  0  0  0  0  0  0  0
    7.7796   10.1314   21.5115 N   0  0  0  0  0  0  0  0  0  0  0  0
    9.2768    5.6183   21.4437 C   0  0  0  0  0  0  0  0  0  0  0  0
    8.6315    7.7322   23.1768 C   0  0  0  0  0  0  0  0  0  0  0  0
   13.0537    9.9821   20.5781 C   0  0  0  0  0  0  0  0  0  0  0  0
   10.3850    4.6575   23.2386 O   0  0  0  0  0  0  0  0  0  0  0  0
    4.2069    6.8450   20.7994 C   0  0  0  0  0  0  0  0  0  0  0  0
    3.0726   10.1043   19.8522 O   0  0  0  0  0  0  0  0  0  0  0  0
    5.5057    7.1196   21.1155 C   0  0  0  0  0  0  0  0  0  0  0  0
    7.0367   11.0229   21.9948 O   0  0  0  0  0  0  0  0  0  0  0  0
  1  8  4  0
  1 12  4  0
  2  9  1  0
  2 11  4  0
  2 25  4  0
  3 12  4  0
  3 14  1  0
  3 23  4  0
  4 13  4  0
  4 21  4  0
  4 24  1  0
  5  8  4  0
  5 23  4  0
  6 18  2  0
  7 15  4  0
  7 16  1  0
  7 27  4  0
  8 18  1  0
 10 18  1  0
 10 20  1  0
 11 15  4  0
 11 26  1  0
 13 22  4  0
 16 19  1  0
 16 20  2  0
 17 19  4  0
 17 21  4  0
 19 22  4  0
 20 28  1  0
 25 27  4  0
M  END
$$$$

 Created by Python create_sdf_string function

 28 30  0  0  0  0  0  0  0  0999 V2000
   11.4592   11.2893   18.7941 C   0  0  0  0  0  0  0  0  0  0  0  0
    3.4202    7.9009   20.3866 C   0  0  0  0  0  0  0  0  0  0  0  0
   13.5280   10.3522   19.3586 C   0  0  0  0  0  0  0  0  0  0  0  0
    9.6923    5.6468   22.7891 C   0  0  0  0  0  0  0  0  0  0  0  0
   11.7756   10.2554   20.8841 N   0  0  0  0  0  0  0  0  0  0  0  0
    8.9876   11.9370   19.8757 O   0  0  0  0  0  0  0  0  0  0  0  0
    6.0167    8.4478   21.1089 C   0  0  0  0  0  0  0  0  0  0  0  0
   11.0002   10.8890   20.0262 C   0  0  0  0  0  0  0  0  0  0  0  0
    2.1721    7.7393   20.0315 O   0  0  0  0  0  0  0  0  0  0  0  0
    9.1107   10.3880   21.3769 N   0  0  0  0  0  0  0  0  0  0  0  0
    3.9102    9.2008   20.3124 C   0  0  0  0  0  0  0  0  0  0  0  0
   12.7292   10.9960   18.4597 C   0  0  0  0  0  0  0  0  0  0  0  0
    9.3798    6.6793   23.6625 C   0  0  0  0  0  0  0  0  0  0  0  0
   14.7425   10.0739   19.0802 O   0  0  0  0  0  0  0  0  0  0  0  0
    5.1894    9.4673   20.7118 C   0  0  0  0  0  0  0  0  0  0  0  0
    7.3773    8.8224   21.4870 C   0  0  0  0  0  0  0  0  0  0  0  0
    8.4391    6.6439   21.0235 C   0  0  0  0  0  0  0  0  0  0  0  0
    9.6494   11.1353   20.4167 C   0  0  0  0  0  0  0  0  0  0  0  0
    8.1431    7.6829   21.9046 C   0  0  0  0  0  0  0  0  0  0  0  0
    7.7796   10.1314   21.5115 N   0  0  0  0  0  0  0  0  0  0  0  0
    9.2768    5.6183   21.4437 C   0  0  0  0  0  0  0  0  0  0  0  0
    8.6315    7.7322   23.1768 C   0  0  0  0  0  0  0  0  0  0  0  0
   13.0537    9.9821   20.5781 C   0  0  0  0  0  0  0  0  0  0  0  0
   10.3850    4.6575   23.2386 O   0  0  0  0  0  0  0  0  0  0  0  0
    4.2069    6.8450   20.7994 C   0  0  0  0  0  0  0  0  0  0  0  0
    3.0726   10.1043   19.8522 O   0  0  0  0  0  0  0  0  0  0  0  0
    5.5057    7.1196   21.1155 C   0  0  0  0  0  0  0  0  0  0  0  0
    7.0367   11.0229   21.9948 O   0  0  0  0  0  0  0  0  0  0  0  0
  1  8  4  0
  1 12  4  0
  2  9  1  0
  2 11  4  0
  2 25  4  0
  3 12  4  0
  3 14  1  0
  3 23  4  0
  4 13  4  0
  4 21  4  0
  4 24  1  0
  5  8  4  0
  5 23  4  0
  6 18  2  0
  7 15  4  0
  7 16  1  0
  7 27  4  0
  8 18  1  0
 10 18  1  0
 10 20  1  0
 11 15  4  0
 11 26  1  0
 13 22  4  0
 16 19  1  0
 16 20  2  0
 17 19  4  0
 17 21  4  0
 19 22  4  0
 20 28  1  0
 25 27  4  0
M  END
$$$$

 Created by Python create_sdf_string function

 28 30  0  0  0  0  0  0  0  0999 V2000
   11.4592   11.2893   18.7941 C   0  0  0  0  0  0  0  0  0  0  0  0
    3.4202    7.9009   20.3866 C   0  0  0  0  0  0  0  0  0  0  0  0
   13.5280   10.3522   19.3586 C   0  0  0  0  0  0  0  0  0  0  0  0
    9.6923    5.6468   22.7891 C   0  0  0  0  0  0  0  0  0  0  0  0
   11.7756   10.2554   20.8841 N   0  0  0  0  0  0  0  0  0  0  0  0
    8.9876   11.9370   19.8757 O   0  0  0  0  0  0  0  0  0  0  0  0
    6.0167    8.4478   21.1089 C   0  0  0  0  0  0  0  0  0  0  0  0
   11.0002   10.8890   20.0262 C   0  0  0  0  0  0  0  0  0  0  0  0
    2.1721    7.7393   20.0315 O   0  0  0  0  0  0  0  0  0  0  0  0
    9.1107   10.3880   21.3769 N   0  0  0  0  0  0  0  0  0  0  0  0
    3.9102    9.2008   20.3124 C   0  0  0  0  0  0  0  0  0  0  0  0
   12.7292   10.9960   18.4597 C   0  0  0  0  0  0  0  0  0  0  0  0
    9.3798    6.6793   23.6625 C   0  0  0  0  0  0  0  0  0  0  0  0
   14.7425   10.0739   19.0802 O   0  0  0  0  0  0  0  0  0  0  0  0
    5.1894    9.4673   20.7118 C   0  0  0  0  0  0  0  0  0  0  0  0
    7.3773    8.8224   21.4870 C   0  0  0  0  0  0  0  0  0  0  0  0
    8.4391    6.6439   21.0235 C   0  0  0  0  0  0  0  0  0  0  0  0
    9.6494   11.1353   20.4167 C   0  0  0  0  0  0  0  0  0  0  0  0
    8.1431    7.6829   21.9046 C   0  0  0  0  0  0  0  0  0  0  0  0
    7.7796   10.1314   21.5115 N   0  0  0  0  0  0  0  0  0  0  0  0
    9.2768    5.6183   21.4437 C   0  0  0  0  0  0  0  0  0  0  0  0
    8.6315    7.7322   23.1768 C   0  0  0  0  0  0  0  0  0  0  0  0
   13.0537    9.9821   20.5781 C   0  0  0  0  0  0  0  0  0  0  0  0
   10.3850    4.6575   23.2386 O   0  0  0  0  0  0  0  0  0  0  0  0
    4.2069    6.8450   20.7994 C   0  0  0  0  0  0  0  0  0  0  0  0
    3.0726   10.1043   19.8522 O   0  0  0  0  0  0  0  0  0  0  0  0
    5.5057    7.1196   21.1155 C   0  0  0  0  0  0  0  0  0  0  0  0
    7.0367   11.0229   21.9948 O   0  0  0  0  0  0  0  0  0  0  0  0
  1  8  4  0
  1 12  4  0
  2  9  1  0
  2 11  4  0
  2 25  4  0
  3 12  4  0
  3 14  1  0
  3 23  4  0
  4 13  4  0
  4 21  4  0
  4 24  1  0
  5  8  4  0
  5 23  4  0
  6 18  2  0
  7 15  4  0
  7 16  1  0
  7 27  4  0
  8 18  1  0
 10 18  1  0
 10 20  1  0
 11 15  4  0
 11 26  1  0
 13 22  4  0
 16 19  1  0
 16 20  2  0
 17 19  4  0
 17 21  4  0
 19 22  4  0
 20 28  1  0
 25 27  4  0
M  END
$$$$

 Created by Python create_sdf_string function

 28 30  0  0  0  0  0  0  0  0999 V2000
   11.4592   11.2893   18.7941 C   0  0  0  0  0  0  0  0  0  0  0  0
    3.4202    7.9009   20.3866 C   0  0  0  0  0  0  0  0  0  0  0  0
   13.5280   10.3522   19.3586 C   0  0  0  0  0  0  0  0  0  0  0  0
    9.6923    5.6468   22.7891 C   0  0  0  0  0  0  0  0  0  0  0  0
   11.7756   10.2554   20.8841 N   0  0  0  0  0  0  0  0  0  0  0  0
    8.9876   11.9370   19.8757 O   0  0  0  0  0  0  0  0  0  0  0  0
    6.0167    8.4478   21.1089 C   0  0  0  0  0  0  0  0  0  0  0  0
   11.0002   10.8890   20.0262 C   0  0  0  0  0  0  0  0  0  0  0  0
    2.1721    7.7393   20.0315 O   0  0  0  0  0  0  0  0  0  0  0  0
    9.1107   10.3880   21.3769 N   0  0  0  0  0  0  0  0  0  0  0  0
    3.9102    9.2008   20.3124 C   0  0  0  0  0  0  0  0  0  0  0  0
   12.7292   10.9960   18.4597 C   0  0  0  0  0  0  0  0  0  0  0  0
    9.3798    6.6793   23.6625 C   0  0  0  0  0  0  0  0  0  0  0  0
   14.7425   10.0739   19.0802 O   0  0  0  0  0  0  0  0  0  0  0  0
    5.1894    9.4673   20.7118 C   0  0  0  0  0  0  0  0  0  0  0  0
    7.3773    8.8224   21.4870 C   0  0  0  0  0  0  0  0  0  0  0  0
    8.4391    6.6439   21.0235 C   0  0  0  0  0  0  0  0  0  0  0  0
    9.6494   11.1353   20.4167 C   0  0  0  0  0  0  0  0  0  0  0  0
    8.1431    7.6829   21.9046 C   0  0  0  0  0  0  0  0  0  0  0  0
    7.7796   10.1314   21.5115 N   0  0  0  0  0  0  0  0  0  0  0  0
    9.2768    5.6183   21.4437 C   0  0  0  0  0  0  0  0  0  0  0  0
    8.6315    7.7322   23.1768 C   0  0  0  0  0  0  0  0  0  0  0  0
   13.0537    9.9821   20.5781 C   0  0  0  0  0  0  0  0  0  0  0  0
   10.3850    4.6575   23.2386 O   0  0  0  0  0  0  0  0  0  0  0  0
    4.2069    6.8450   20.7994 C   0  0  0  0  0  0  0  0  0  0  0  0
    3.0726   10.1043   19.8522 O   0  0  0  0  0  0  0  0  0  0  0  0
    5.5057    7.1196   21.1155 C   0  0  0  0  0  0  0  0  0  0  0  0
    7.0367   11.0229   21.9948 O   0  0  0  0  0  0  0  0  0  0  0  0
  1  8  4  0
  1 12  4  0
  2  9  1  0
  2 11  4  0
  2 25  4  0
  3 12  4  0
  3 14  1  0
  3 23  4  0
  4 13  4  0
  4 21  4  0
  4 24  1  0
  5  8  4  0
  5 23  4  0
  6 18  2  0
  7 15  4  0
  7 16  1  0
  7 27  4  0
  8 18  1  0
 10 18  1  0
 10 20  1  0
 11 15  4  0
 11 26  1  0
 13 22  4  0
 16 19  1  0
 16 20  2  0
 17 19  4  0
 17 21  4  0
 19 22  4  0
 20 28  1  0
 25 27  4  0
M  END
$$$$

 Created by Python create_sdf_string function

 28 30  0  0  0  0  0  0  0  0999 V2000
   11.4592   11.2893   18.7941 C   0  0  0  0  0  0  0  0  0  0  0  0
    3.4202    7.9009   20.3866 C   0  0  0  0  0  0  0  0  0  0  0  0
   13.5280   10.3522   19.3586 C   0  0  0  0  0  0  0  0  0  0  0  0
    9.6923    5.6468   22.7891 C   0  0  0  0  0  0  0  0  0  0  0  0
   11.7756   10.2554   20.8841 N   0  0  0  0  0  0  0  0  0  0  0  0
    8.9876   11.9370   19.8757 O   0  0  0  0  0  0  0  0  0  0  0  0
    6.0167    8.4478   21.1089 C   0  0  0  0  0  0  0  0  0  0  0  0
   11.0002   10.8890   20.0262 C   0  0  0  0  0  0  0  0  0  0  0  0
    2.1721    7.7393   20.0315 O   0  0  0  0  0  0  0  0  0  0  0  0
    9.1107   10.3880   21.3769 N   0  0  0  0  0  0  0  0  0  0  0  0
    3.9102    9.2008   20.3124 C   0  0  0  0  0  0  0  0  0  0  0  0
   12.7292   10.9960   18.4597 C   0  0  0  0  0  0  0  0  0  0  0  0
    9.3798    6.6793   23.6625 C   0  0  0  0  0  0  0  0  0  0  0  0
   14.7425   10.0739   19.0802 O   0  0  0  0  0  0  0  0  0  0  0  0
    5.1894    9.4673   20.7118 C   0  0  0  0  0  0  0  0  0  0  0  0
    7.3773    8.8224   21.4870 C   0  0  0  0  0  0  0  0  0  0  0  0
    8.4391    6.6439   21.0235 C   0  0  0  0  0  0  0  0  0  0  0  0
    9.6494   11.1353   20.4167 C   0  0  0  0  0  0  0  0  0  0  0  0
    8.1431    7.6829   21.9046 C   0  0  0  0  0  0  0  0  0  0  0  0
    7.7796   10.1314   21.5115 N   0  0  0  0  0  0  0  0  0  0  0  0
    9.2768    5.6183   21.4437 C   0  0  0  0  0  0  0  0  0  0  0  0
    8.6315    7.7322   23.1768 C   0  0  0  0  0  0  0  0  0  0  0  0
   13.0537    9.9821   20.5781 C   0  0  0  0  0  0  0  0  0  0  0  0
   10.3850    4.6575   23.2386 O   0  0  0  0  0  0  0  0  0  0  0  0
    4.2069    6.8450   20.7994 C   0  0  0  0  0  0  0  0  0  0  0  0
    3.0726   10.1043   19.8522 O   0  0  0  0  0  0  0  0  0  0  0  0
    5.5057    7.1196   21.1155 C   0  0  0  0  0  0  0  0  0  0  0  0
    7.0367   11.0229   21.9948 O   0  0  0  0  0  0  0  0  0  0  0  0
  1  8  4  0
  1 12  4  0
  2  9  1  0
  2 11  4  0
  2 25  4  0
  3 12  4  0
  3 14  1  0
  3 23  4  0
  4 13  4  0
  4 21  4  0
  4 24  1  0
  5  8  4  0
  5 23  4  0
  6 18  2  0
  7 15  4  0
  7 16  1  0
  7 27  4  0
  8 18  1  0
 10 18  1  0
 10 20  1  0
 11 15  4  0
 11 26  1  0
 13 22  4  0
 16 19  1  0
 16 20  2  0
 17 19  4  0
 17 21  4  0
 19 22  4  0
 20 28  1  0
 25 27  4  0
M  END
$$$$

 Created by Python create_sdf_string function

 28 30  0  0  0  0  0  0  0  0999 V2000
   11.4592   11.2893   18.7941 C   0  0  0  0  0  0  0  0  0  0  0  0
    3.4202    7.9009   20.3866 C   0  0  0  0  0  0  0  0  0  0  0  0
   13.5280   10.3522   19.3586 C   0  0  0  0  0  0  0  0  0  0  0  0
    9.6923    5.6468   22.7891 C   0  0  0  0  0  0  0  0  0  0  0  0
   11.7756   10.2554   20.8841 N   0  0  0  0  0  0  0  0  0  0  0  0
    8.9876   11.9370   19.8757 O   0  0  0  0  0  0  0  0  0  0  0  0
    6.0167    8.4478   21.1089 C   0  0  0  0  0  0  0  0  0  0  0  0
   11.0002   10.8890   20.0262 C   0  0  0  0  0  0  0  0  0  0  0  0
    2.1721    7.7393   20.0315 O   0  0  0  0  0  0  0  0  0  0  0  0
    9.1107   10.3880   21.3769 N   0  0  0  0  0  0  0  0  0  0  0  0
    3.9102    9.2008   20.3124 C   0  0  0  0  0  0  0  0  0  0  0  0
   12.7292   10.9960   18.4597 C   0  0  0  0  0  0  0  0  0  0  0  0
    9.3798    6.6793   23.6625 C   0  0  0  0  0  0  0  0  0  0  0  0
   14.7425   10.0739   19.0802 O   0  0  0  0  0  0  0  0  0  0  0  0
    5.1894    9.4673   20.7118 C   0  0  0  0  0  0  0  0  0  0  0  0
    7.3773    8.8224   21.4870 C   0  0  0  0  0  0  0  0  0  0  0  0
    8.4391    6.6439   21.0235 C   0  0  0  0  0  0  0  0  0  0  0  0
    9.6494   11.1353   20.4167 C   0  0  0  0  0  0  0  0  0  0  0  0
    8.1431    7.6829   21.9046 C   0  0  0  0  0  0  0  0  0  0  0  0
    7.7796   10.1314   21.5115 N   0  0  0  0  0  0  0  0  0  0  0  0
    9.2768    5.6183   21.4437 C   0  0  0  0  0  0  0  0  0  0  0  0
    8.6315    7.7322   23.1768 C   0  0  0  0  0  0  0  0  0  0  0  0
   13.0537    9.9821   20.5781 C   0  0  0  0  0  0  0  0  0  0  0  0
   10.3850    4.6575   23.2386 O   0  0  0  0  0  0  0  0  0  0  0  0
    4.2069    6.8450   20.7994 C   0  0  0  0  0  0  0  0  0  0  0  0
    3.0726   10.1043   19.8522 O   0  0  0  0  0  0  0  0  0  0  0  0
    5.5057    7.1196   21.1155 C   0  0  0  0  0  0  0  0  0  0  0  0
    7.0367   11.0229   21.9948 O   0  0  0  0  0  0  0  0  0  0  0  0
  1  8  4  0
  1 12  4  0
  2  9  1  0
  2 11  4  0
  2 25  4  0
  3 12  4  0
  3 14  1  0
  3 23  4  0
  4 13  4  0
  4 21  4  0
  4 24  1  0
  5  8  4  0
  5 23  4  0
  6 18  2  0
  7 15  4  0
  7 16  1  0
  7 27  4  0
  8 18  1  0
 10 18  1  0
 10 20  1  0
 11 15  4  0
 11 26  1  0
 13 22  4  0
 16 19  1  0
 16 20  2  0
 17 19  4  0
 17 21  4  0
 19 22  4  0
 20 28  1  0
 25 27  4  0
M  END
$$$$

 Created by Python create_sdf_string function

 28 30  0  0  0  0  0  0  0  0999 V2000
   11.4592   11.2893   18.7941 C   0  0  0  0  0  0  0  0  0  0  0  0
    3.4202    7.9009   20.3866 C   0  0  0  0  0  0  0  0  0  0  0  0
   13.5280   10.3522   19.3586 C   0  0  0  0  0  0  0  0  0  0  0  0
    9.6923    5.6468   22.7891 C   0  0  0  0  0  0  0  0  0  0  0  0
   11.7756   10.2554   20.8841 N   0  0  0  0  0  0  0  0  0  0  0  0
    8.9876   11.9370   19.8757 O   0  0  0  0  0  0  0  0  0  0  0  0
    6.0167    8.4478   21.1089 C   0  0  0  0  0  0  0  0  0  0  0  0
   11.0002   10.8890   20.0262 C   0  0  0  0  0  0  0  0  0  0  0  0
    2.1721    7.7393   20.0315 O   0  0  0  0  0  0  0  0  0  0  0  0
    9.1107   10.3880   21.3769 N   0  0  0  0  0  0  0  0  0  0  0  0
    3.9102    9.2008   20.3124 C   0  0  0  0  0  0  0  0  0  0  0  0
   12.7292   10.9960   18.4597 C   0  0  0  0  0  0  0  0  0  0  0  0
    9.3798    6.6793   23.6625 C   0  0  0  0  0  0  0  0  0  0  0  0
   14.7425   10.0739   19.0802 O   0  0  0  0  0  0  0  0  0  0  0  0
    5.1894    9.4673   20.7118 C   0  0  0  0  0  0  0  0  0  0  0  0
    7.3773    8.8224   21.4870 C   0  0  0  0  0  0  0  0  0  0  0  0
    8.4391    6.6439   21.0235 C   0  0  0  0  0  0  0  0  0  0  0  0
    9.6494   11.1353   20.4167 C   0  0  0  0  0  0  0  0  0  0  0  0
    8.1431    7.6829   21.9046 C   0  0  0  0  0  0  0  0  0  0  0  0
    7.7796   10.1314   21.5115 N   0  0  0  0  0  0  0  0  0  0  0  0
    9.2768    5.6183   21.4437 C   0  0  0  0  0  0  0  0  0  0  0  0
    8.6315    7.7322   23.1768 C   0  0  0  0  0  0  0  0  0  0  0  0
   13.0537    9.9821   20.5781 C   0  0  0  0  0  0  0  0  0  0  0  0
   10.3850    4.6575   23.2386 O   0  0  0  0  0  0  0  0  0  0  0  0
    4.2069    6.8450   20.7994 C   0  0  0  0  0  0  0  0  0  0  0  0
    3.0726   10.1043   19.8522 O   0  0  0  0  0  0  0  0  0  0  0  0
    5.5057    7.1196   21.1155 C   0  0  0  0  0  0  0  0  0  0  0  0
    7.0367   11.0229   21.9948 O   0  0  0  0  0  0  0  0  0  0  0  0
  1  8  4  0
  1 12  4  0
  2  9  1  0
  2 11  4  0
  2 25  4  0
  3 12  4  0
  3 14  1  0
  3 23  4  0
  4 13  4  0
  4 21  4  0
  4 24  1  0
  5  8  4  0
  5 23  4  0
  6 18  2  0
  7 15  4  0
  7 16  1  0
  7 27  4  0
  8 18  1  0
 10 18  1  0
 10 20  1  0
 11 15  4  0
 11 26  1  0
 13 22  4  0
 16 19  1  0
 16 20  2  0
 17 19  4  0
 17 21  4  0
 19 22  4  0
 20 28  1  0
 25 27  4  0
M  END
$$$$

 Created by Python create_sdf_string function

 28 30  0  0  0  0  0  0  0  0999 V2000
   11.4592   11.2893   18.7941 C   0  0  0  0  0  0  0  0  0  0  0  0
    3.4202    7.9009   20.3866 C   0  0  0  0  0  0  0  0  0  0  0  0
   13.5280   10.3522   19.3586 C   0  0  0  0  0  0  0  0  0  0  0  0
    9.6923    5.6468   22.7891 C   0  0  0  0  0  0  0  0  0  0  0  0
   11.7756   10.2554   20.8841 N   0  0  0  0  0  0  0  0  0  0  0  0
    8.9876   11.9370   19.8757 O   0  0  0  0  0  0  0  0  0  0  0  0
    6.0167    8.4478   21.1089 C   0  0  0  0  0  0  0  0  0  0  0  0
   11.0002   10.8890   20.0262 C   0  0  0  0  0  0  0  0  0  0  0  0
    2.1721    7.7393   20.0315 O   0  0  0  0  0  0  0  0  0  0  0  0
    9.1107   10.3880   21.3769 N   0  0  0  0  0  0  0  0  0  0  0  0
    3.9102    9.2008   20.3124 C   0  0  0  0  0  0  0  0  0  0  0  0
   12.7292   10.9960   18.4597 C   0  0  0  0  0  0  0  0  0  0  0  0
    9.3798    6.6793   23.6625 C   0  0  0  0  0  0  0  0  0  0  0  0
   14.7425   10.0739   19.0802 O   0  0  0  0  0  0  0  0  0  0  0  0
    5.1894    9.4673   20.7118 C   0  0  0  0  0  0  0  0  0  0  0  0
    7.3773    8.8224   21.4870 C   0  0  0  0  0  0  0  0  0  0  0  0
    8.4391    6.6439   21.0235 C   0  0  0  0  0  0  0  0  0  0  0  0
    9.6494   11.1353   20.4167 C   0  0  0  0  0  0  0  0  0  0  0  0
    8.1431    7.6829   21.9046 C   0  0  0  0  0  0  0  0  0  0  0  0
    7.7796   10.1314   21.5115 N   0  0  0  0  0  0  0  0  0  0  0  0
    9.2768    5.6183   21.4437 C   0  0  0  0  0  0  0  0  0  0  0  0
    8.6315    7.7322   23.1768 C   0  0  0  0  0  0  0  0  0  0  0  0
   13.0537    9.9821   20.5781 C   0  0  0  0  0  0  0  0  0  0  0  0
   10.3850    4.6575   23.2386 O   0  0  0  0  0  0  0  0  0  0  0  0
    4.2069    6.8450   20.7994 C   0  0  0  0  0  0  0  0  0  0  0  0
    3.0726   10.1043   19.8522 O   0  0  0  0  0  0  0  0  0  0  0  0
    5.5057    7.1196   21.1155 C   0  0  0  0  0  0  0  0  0  0  0  0
    7.0367   11.0229   21.9948 O   0  0  0  0  0  0  0  0  0  0  0  0
  1  8  4  0
  1 12  4  0
  2  9  1  0
  2 11  4  0
  2 25  4  0
  3 12  4  0
  3 14  1  0
  3 23  4  0
  4 13  4  0
  4 21  4  0
  4 24  1  0
  5  8  4  0
  5 23  4  0
  6 18  2  0
  7 15  4  0
  7 16  1  0
  7 27  4  0
  8 18  1  0
 10 18  1  0
 10 20  1  0
 11 15  4  0
 11 26  1  0
 13 22  4  0
 16 19  1  0
 16 20  2  0
 17 19  4  0
 17 21  4  0
 19 22  4  0
 20 28  1  0
 25 27  4  0
M  END
$$$$

 Created by Python create_sdf_string function

 28 30  0  0  0  0  0  0  0  0999 V2000
   11.4592   11.2893   18.7941 C   0  0  0  0  0  0  0  0  0  0  0  0
    3.4202    7.9009   20.3866 C   0  0  0  0  0  0  0  0  0  0  0  0
   13.5280   10.3522   19.3586 C   0  0  0  0  0  0  0  0  0  0  0  0
    9.6923    5.6468   22.7891 C   0  0  0  0  0  0  0  0  0  0  0  0
   11.7756   10.2554   20.8841 N   0  0  0  0  0  0  0  0  0  0  0  0
    8.9876   11.9370   19.8757 O   0  0  0  0  0  0  0  0  0  0  0  0
    6.0167    8.4478   21.1089 C   0  0  0  0  0  0  0  0  0  0  0  0
   11.0002   10.8890   20.0262 C   0  0  0  0  0  0  0  0  0  0  0  0
    2.1721    7.7393   20.0315 O   0  0  0  0  0  0  0  0  0  0  0  0
    9.1107   10.3880   21.3769 N   0  0  0  0  0  0  0  0  0  0  0  0
    3.9102    9.2008   20.3124 C   0  0  0  0  0  0  0  0  0  0  0  0
   12.7292   10.9960   18.4597 C   0  0  0  0  0  0  0  0  0  0  0  0
    9.3798    6.6793   23.6625 C   0  0  0  0  0  0  0  0  0  0  0  0
   14.7425   10.0739   19.0802 O   0  0  0  0  0  0  0  0  0  0  0  0
    5.1894    9.4673   20.7118 C   0  0  0  0  0  0  0  0  0  0  0  0
    7.3773    8.8224   21.4870 C   0  0  0  0  0  0  0  0  0  0  0  0
    8.4391    6.6439   21.0235 C   0  0  0  0  0  0  0  0  0  0  0  0
    9.6494   11.1353   20.4167 C   0  0  0  0  0  0  0  0  0  0  0  0
    8.1431    7.6829   21.9046 C   0  0  0  0  0  0  0  0  0  0  0  0
    7.7796   10.1314   21.5115 N   0  0  0  0  0  0  0  0  0  0  0  0
    9.2768    5.6183   21.4437 C   0  0  0  0  0  0  0  0  0  0  0  0
    8.6315    7.7322   23.1768 C   0  0  0  0  0  0  0  0  0  0  0  0
   13.0537    9.9821   20.5781 C   0  0  0  0  0  0  0  0  0  0  0  0
   10.3850    4.6575   23.2386 O   0  0  0  0  0  0  0  0  0  0  0  0
    4.2069    6.8450   20.7994 C   0  0  0  0  0  0  0  0  0  0  0  0
    3.0726   10.1043   19.8522 O   0  0  0  0  0  0  0  0  0  0  0  0
    5.5057    7.1196   21.1155 C   0  0  0  0  0  0  0  0  0  0  0  0
    7.0367   11.0229   21.9948 O   0  0  0  0  0  0  0  0  0  0  0  0
  1  8  4  0
  1 12  4  0
  2  9  1  0
  2 11  4  0
  2 25  4  0
  3 12  4  0
  3 14  1  0
  3 23  4  0
  4 13  4  0
  4 21  4  0
  4 24  1  0
  5  8  4  0
  5 23  4  0
  6 18  2  0
  7 15  4  0
  7 16  1  0
  7 27  4  0
  8 18  1  0
 10 18  1  0
 10 20  1  0
 11 15  4  0
 11 26  1  0
 13 22  4  0
 16 19  1  0
 16 20  2  0
 17 19  4  0
 17 21  4  0
 19 22  4  0
 20 28  1  0
 25 27  4  0
M  END
$$$$

 Created by Python create_sdf_string function

 28 30  0  0  0  0  0  0  0  0999 V2000
   11.4592   11.2893   18.7941 C   0  0  0  0  0  0  0  0  0  0  0  0
    3.4202    7.9009   20.3866 C   0  0  0  0  0  0  0  0  0  0  0  0
   13.5280   10.3522   19.3586 C   0  0  0  0  0  0  0  0  0  0  0  0
    9.6923    5.6468   22.7891 C   0  0  0  0  0  0  0  0  0  0  0  0
   11.7756   10.2554   20.8841 N   0  0  0  0  0  0  0  0  0  0  0  0
    8.9876   11.9370   19.8757 O   0  0  0  0  0  0  0  0  0  0  0  0
    6.0167    8.4478   21.1089 C   0  0  0  0  0  0  0  0  0  0  0  0
   11.0002   10.8890   20.0262 C   0  0  0  0  0  0  0  0  0  0  0  0
    2.1721    7.7393   20.0315 O   0  0  0  0  0  0  0  0  0  0  0  0
    9.1107   10.3880   21.3769 N   0  0  0  0  0  0  0  0  0  0  0  0
    3.9102    9.2008   20.3124 C   0  0  0  0  0  0  0  0  0  0  0  0
   12.7292   10.9960   18.4597 C   0  0  0  0  0  0  0  0  0  0  0  0
    9.3798    6.6793   23.6625 C   0  0  0  0  0  0  0  0  0  0  0  0
   14.7425   10.0739   19.0802 O   0  0  0  0  0  0  0  0  0  0  0  0
    5.1894    9.4673   20.7118 C   0  0  0  0  0  0  0  0  0  0  0  0
    7.3773    8.8224   21.4870 C   0  0  0  0  0  0  0  0  0  0  0  0
    8.4391    6.6439   21.0235 C   0  0  0  0  0  0  0  0  0  0  0  0
    9.6494   11.1353   20.4167 C   0  0  0  0  0  0  0  0  0  0  0  0
    8.1431    7.6829   21.9046 C   0  0  0  0  0  0  0  0  0  0  0  0
    7.7796   10.1314   21.5115 N   0  0  0  0  0  0  0  0  0  0  0  0
    9.2768    5.6183   21.4437 C   0  0  0  0  0  0  0  0  0  0  0  0
    8.6315    7.7322   23.1768 C   0  0  0  0  0  0  0  0  0  0  0  0
   13.0537    9.9821   20.5781 C   0  0  0  0  0  0  0  0  0  0  0  0
   10.3850    4.6575   23.2386 O   0  0  0  0  0  0  0  0  0  0  0  0
    4.2069    6.8450   20.7994 C   0  0  0  0  0  0  0  0  0  0  0  0
    3.0726   10.1043   19.8522 O   0  0  0  0  0  0  0  0  0  0  0  0
    5.5057    7.1196   21.1155 C   0  0  0  0  0  0  0  0  0  0  0  0
    7.0367   11.0229   21.9948 O   0  0  0  0  0  0  0  0  0  0  0  0
  1  8  4  0
  1 12  4  0
  2  9  1  0
  2 11  4  0
  2 25  4  0
  3 12  4  0
  3 14  1  0
  3 23  4  0
  4 13  4  0
  4 21  4  0
  4 24  1  0
  5  8  4  0
  5 23  4  0
  6 18  2  0
  7 15  4  0
  7 16  1  0
  7 27  4  0
  8 18  1  0
 10 18  1  0
 10 20  1  0
 11 15  4  0
 11 26  1  0
 13 22  4  0
 16 19  1  0
 16 20  2  0
 17 19  4  0
 17 21  4  0
 19 22  4  0
 20 28  1  0
 25 27  4  0
M  END
$$$$

 Created by Python create_sdf_string function

 28 30  0  0  0  0  0  0  0  0999 V2000
   11.4592   11.2893   18.7941 C   0  0  0  0  0  0  0  0  0  0  0  0
    3.4202    7.9009   20.3866 C   0  0  0  0  0  0  0  0  0  0  0  0
   13.5280   10.3522   19.3586 C   0  0  0  0  0  0  0  0  0  0  0  0
    9.6923    5.6468   22.7891 C   0  0  0  0  0  0  0  0  0  0  0  0
   11.7756   10.2554   20.8841 N   0  0  0  0  0  0  0  0  0  0  0  0
    8.9876   11.9370   19.8757 O   0  0  0  0  0  0  0  0  0  0  0  0
    6.0167    8.4478   21.1089 C   0  0  0  0  0  0  0  0  0  0  0  0
   11.0002   10.8890   20.0262 C   0  0  0  0  0  0  0  0  0  0  0  0
    2.1721    7.7393   20.0315 O   0  0  0  0  0  0  0  0  0  0  0  0
    9.1107   10.3880   21.3769 N   0  0  0  0  0  0  0  0  0  0  0  0
    3.9102    9.2008   20.3124 C   0  0  0  0  0  0  0  0  0  0  0  0
   12.7292   10.9960   18.4597 C   0  0  0  0  0  0  0  0  0  0  0  0
    9.3798    6.6793   23.6625 C   0  0  0  0  0  0  0  0  0  0  0  0
   14.7425   10.0739   19.0802 O   0  0  0  0  0  0  0  0  0  0  0  0
    5.1894    9.4673   20.7118 C   0  0  0  0  0  0  0  0  0  0  0  0
    7.3773    8.8224   21.4870 C   0  0  0  0  0  0  0  0  0  0  0  0
    8.4391    6.6439   21.0235 C   0  0  0  0  0  0  0  0  0  0  0  0
    9.6494   11.1353   20.4167 C   0  0  0  0  0  0  0  0  0  0  0  0
    8.1431    7.6829   21.9046 C   0  0  0  0  0  0  0  0  0  0  0  0
    7.7796   10.1314   21.5115 N   0  0  0  0  0  0  0  0  0  0  0  0
    9.2768    5.6183   21.4437 C   0  0  0  0  0  0  0  0  0  0  0  0
    8.6315    7.7322   23.1768 C   0  0  0  0  0  0  0  0  0  0  0  0
   13.0537    9.9821   20.5781 C   0  0  0  0  0  0  0  0  0  0  0  0
   10.3850    4.6575   23.2386 O   0  0  0  0  0  0  0  0  0  0  0  0
    4.2069    6.8450   20.7994 C   0  0  0  0  0  0  0  0  0  0  0  0
    3.0726   10.1043   19.8522 O   0  0  0  0  0  0  0  0  0  0  0  0
    5.5057    7.1196   21.1155 C   0  0  0  0  0  0  0  0  0  0  0  0
    7.0367   11.0229   21.9948 O   0  0  0  0  0  0  0  0  0  0  0  0
  1  8  4  0
  1 12  4  0
  2  9  1  0
  2 11  4  0
  2 25  4  0
  3 12  4  0
  3 14  1  0
  3 23  4  0
  4 13  4  0
  4 21  4  0
  4 24  1  0
  5  8  4  0
  5 23  4  0
  6 18  2  0
  7 15  4  0
  7 16  1  0
  7 27  4  0
  8 18  1  0
 10 18  1  0
 10 20  1  0
 11 15  4  0
 11 26  1  0
 13 22  4  0
 16 19  1  0
 16 20  2  0
 17 19  4  0
 17 21  4  0
 19 22  4  0
 20 28  1  0
 25 27  4  0
M  END
$$$$

 Created by Python create_sdf_string function

 28 30  0  0  0  0  0  0  0  0999 V2000
   11.4592   11.2893   18.7941 C   0  0  0  0  0  0  0  0  0  0  0  0
    3.4202    7.9009   20.3866 C   0  0  0  0  0  0  0  0  0  0  0  0
   13.5280   10.3522   19.3586 C   0  0  0  0  0  0  0  0  0  0  0  0
    9.6923    5.6468   22.7891 C   0  0  0  0  0  0  0  0  0  0  0  0
   11.7756   10.2554   20.8841 N   0  0  0  0  0  0  0  0  0  0  0  0
    8.9876   11.9370   19.8757 O   0  0  0  0  0  0  0  0  0  0  0  0
    6.0167    8.4478   21.1089 C   0  0  0  0  0  0  0  0  0  0  0  0
   11.0002   10.8890   20.0262 C   0  0  0  0  0  0  0  0  0  0  0  0
    2.1721    7.7393   20.0315 O   0  0  0  0  0  0  0  0  0  0  0  0
    9.1107   10.3880   21.3769 N   0  0  0  0  0  0  0  0  0  0  0  0
    3.9102    9.2008   20.3124 C   0  0  0  0  0  0  0  0  0  0  0  0
   12.7292   10.9960   18.4597 C   0  0  0  0  0  0  0  0  0  0  0  0
    9.3798    6.6793   23.6625 C   0  0  0  0  0  0  0  0  0  0  0  0
   14.7425   10.0739   19.0802 O   0  0  0  0  0  0  0  0  0  0  0  0
    5.1894    9.4673   20.7118 C   0  0  0  0  0  0  0  0  0  0  0  0
    7.3773    8.8224   21.4870 C   0  0  0  0  0  0  0  0  0  0  0  0
    8.4391    6.6439   21.0235 C   0  0  0  0  0  0  0  0  0  0  0  0
    9.6494   11.1353   20.4167 C   0  0  0  0  0  0  0  0  0  0  0  0
    8.1431    7.6829   21.9046 C   0  0  0  0  0  0  0  0  0  0  0  0
    7.7796   10.1314   21.5115 N   0  0  0  0  0  0  0  0  0  0  0  0
    9.2768    5.6183   21.4437 C   0  0  0  0  0  0  0  0  0  0  0  0
    8.6315    7.7322   23.1768 C   0  0  0  0  0  0  0  0  0  0  0  0
   13.0537    9.9821   20.5781 C   0  0  0  0  0  0  0  0  0  0  0  0
   10.3850    4.6575   23.2386 O   0  0  0  0  0  0  0  0  0  0  0  0
    4.2069    6.8450   20.7994 C   0  0  0  0  0  0  0  0  0  0  0  0
    3.0726   10.1043   19.8522 O   0  0  0  0  0  0  0  0  0  0  0  0
    5.5057    7.1196   21.1155 C   0  0  0  0  0  0  0  0  0  0  0  0
    7.0367   11.0229   21.9948 O   0  0  0  0  0  0  0  0  0  0  0  0
  1  8  4  0
  1 12  4  0
  2  9  1  0
  2 11  4  0
  2 25  4  0
  3 12  4  0
  3 14  1  0
  3 23  4  0
  4 13  4  0
  4 21  4  0
  4 24  1  0
  5  8  4  0
  5 23  4  0
  6 18  2  0
  7 15  4  0
  7 16  1  0
  7 27  4  0
  8 18  1  0
 10 18  1  0
 10 20  1  0
 11 15  4  0
 11 26  1  0
 13 22  4  0
 16 19  1  0
 16 20  2  0
 17 19  4  0
 17 21  4  0
 19 22  4  0
 20 28  1  0
 25 27  4  0
M  END
$$$$

 Created by Python create_sdf_string function

 28 30  0  0  0  0  0  0  0  0999 V2000
   11.4592   11.2893   18.7941 C   0  0  0  0  0  0  0  0  0  0  0  0
    3.4202    7.9009   20.3866 C   0  0  0  0  0  0  0  0  0  0  0  0
   13.5280   10.3522   19.3586 C   0  0  0  0  0  0  0  0  0  0  0  0
    9.6923    5.6468   22.7891 C   0  0  0  0  0  0  0  0  0  0  0  0
   11.7756   10.2554   20.8841 N   0  0  0  0  0  0  0  0  0  0  0  0
    8.9876   11.9370   19.8757 O   0  0  0  0  0  0  0  0  0  0  0  0
    6.0167    8.4478   21.1089 C   0  0  0  0  0  0  0  0  0  0  0  0
   11.0002   10.8890   20.0262 C   0  0  0  0  0  0  0  0  0  0  0  0
    2.1721    7.7393   20.0315 O   0  0  0  0  0  0  0  0  0  0  0  0
    9.1107   10.3880   21.3769 N   0  0  0  0  0  0  0  0  0  0  0  0
    3.9102    9.2008   20.3124 C   0  0  0  0  0  0  0  0  0  0  0  0
   12.7292   10.9960   18.4597 C   0  0  0  0  0  0  0  0  0  0  0  0
    9.3798    6.6793   23.6625 C   0  0  0  0  0  0  0  0  0  0  0  0
   14.7425   10.0739   19.0802 O   0  0  0  0  0  0  0  0  0  0  0  0
    5.1894    9.4673   20.7118 C   0  0  0  0  0  0  0  0  0  0  0  0
    7.3773    8.8224   21.4870 C   0  0  0  0  0  0  0  0  0  0  0  0
    8.4391    6.6439   21.0235 C   0  0  0  0  0  0  0  0  0  0  0  0
    9.6494   11.1353   20.4167 C   0  0  0  0  0  0  0  0  0  0  0  0
    8.1431    7.6829   21.9046 C   0  0  0  0  0  0  0  0  0  0  0  0
    7.7796   10.1314   21.5115 N   0  0  0  0  0  0  0  0  0  0  0  0
    9.2768    5.6183   21.4437 C   0  0  0  0  0  0  0  0  0  0  0  0
    8.6315    7.7322   23.1768 C   0  0  0  0  0  0  0  0  0  0  0  0
   13.0537    9.9821   20.5781 C   0  0  0  0  0  0  0  0  0  0  0  0
   10.3850    4.6575   23.2386 O   0  0  0  0  0  0  0  0  0  0  0  0
    4.2069    6.8450   20.7994 C   0  0  0  0  0  0  0  0  0  0  0  0
    3.0726   10.1043   19.8522 O   0  0  0  0  0  0  0  0  0  0  0  0
    5.5057    7.1196   21.1155 C   0  0  0  0  0  0  0  0  0  0  0  0
    7.0367   11.0229   21.9948 O   0  0  0  0  0  0  0  0  0  0  0  0
  1  8  4  0
  1 12  4  0
  2  9  1  0
  2 11  4  0
  2 25  4  0
  3 12  4  0
  3 14  1  0
  3 23  4  0
  4 13  4  0
  4 21  4  0
  4 24  1  0
  5  8  4  0
  5 23  4  0
  6 18  2  0
  7 15  4  0
  7 16  1  0
  7 27  4  0
  8 18  1  0
 10 18  1  0
 10 20  1  0
 11 15  4  0
 11 26  1  0
 13 22  4  0
 16 19  1  0
 16 20  2  0
 17 19  4  0
 17 21  4  0
 19 22  4  0
 20 28  1  0
 25 27  4  0
M  END
$$$$

 Created by Python create_sdf_string function

 28 30  0  0  0  0  0  0  0  0999 V2000
   11.4592   11.2893   18.7941 C   0  0  0  0  0  0  0  0  0  0  0  0
    3.4202    7.9009   20.3866 C   0  0  0  0  0  0  0  0  0  0  0  0
   13.5280   10.3522   19.3586 C   0  0  0  0  0  0  0  0  0  0  0  0
    9.6923    5.6468   22.7891 C   0  0  0  0  0  0  0  0  0  0  0  0
   11.7756   10.2554   20.8841 N   0  0  0  0  0  0  0  0  0  0  0  0
    8.9876   11.9370   19.8757 O   0  0  0  0  0  0  0  0  0  0  0  0
    6.0167    8.4478   21.1089 C   0  0  0  0  0  0  0  0  0  0  0  0
   11.0002   10.8890   20.0262 C   0  0  0  0  0  0  0  0  0  0  0  0
    2.1721    7.7393   20.0315 O   0  0  0  0  0  0  0  0  0  0  0  0
    9.1107   10.3880   21.3769 N   0  0  0  0  0  0  0  0  0  0  0  0
    3.9102    9.2008   20.3124 C   0  0  0  0  0  0  0  0  0  0  0  0
   12.7292   10.9960   18.4597 C   0  0  0  0  0  0  0  0  0  0  0  0
    9.3798    6.6793   23.6625 C   0  0  0  0  0  0  0  0  0  0  0  0
   14.7425   10.0739   19.0802 O   0  0  0  0  0  0  0  0  0  0  0  0
    5.1894    9.4673   20.7118 C   0  0  0  0  0  0  0  0  0  0  0  0
    7.3773    8.8224   21.4870 C   0  0  0  0  0  0  0  0  0  0  0  0
    8.4391    6.6439   21.0235 C   0  0  0  0  0  0  0  0  0  0  0  0
    9.6494   11.1353   20.4167 C   0  0  0  0  0  0  0  0  0  0  0  0
    8.1431    7.6829   21.9046 C   0  0  0  0  0  0  0  0  0  0  0  0
    7.7796   10.1314   21.5115 N   0  0  0  0  0  0  0  0  0  0  0  0
    9.2768    5.6183   21.4437 C   0  0  0  0  0  0  0  0  0  0  0  0
    8.6315    7.7322   23.1768 C   0  0  0  0  0  0  0  0  0  0  0  0
   13.0537    9.9821   20.5781 C   0  0  0  0  0  0  0  0  0  0  0  0
   10.3850    4.6575   23.2386 O   0  0  0  0  0  0  0  0  0  0  0  0
    4.2069    6.8450   20.7994 C   0  0  0  0  0  0  0  0  0  0  0  0
    3.0726   10.1043   19.8522 O   0  0  0  0  0  0  0  0  0  0  0  0
    5.5057    7.1196   21.1155 C   0  0  0  0  0  0  0  0  0  0  0  0
    7.0367   11.0229   21.9948 O   0  0  0  0  0  0  0  0  0  0  0  0
  1  8  4  0
  1 12  4  0
  2  9  1  0
  2 11  4  0
  2 25  4  0
  3 12  4  0
  3 14  1  0
  3 23  4  0
  4 13  4  0
  4 21  4  0
  4 24  1  0
  5  8  4  0
  5 23  4  0
  6 18  2  0
  7 15  4  0
  7 16  1  0
  7 27  4  0
  8 18  1  0
 10 18  1  0
 10 20  1  0
 11 15  4  0
 11 26  1  0
 13 22  4  0
 16 19  1  0
 16 20  2  0
 17 19  4  0
 17 21  4  0
 19 22  4  0
 20 28  1  0
 25 27  4  0
M  END
$$$$

 Created by Python create_sdf_string function

 28 30  0  0  0  0  0  0  0  0999 V2000
   11.4592   11.2893   18.7941 C   0  0  0  0  0  0  0  0  0  0  0  0
    3.4202    7.9009   20.3866 C   0  0  0  0  0  0  0  0  0  0  0  0
   13.5280   10.3522   19.3586 C   0  0  0  0  0  0  0  0  0  0  0  0
    9.6923    5.6468   22.7891 C   0  0  0  0  0  0  0  0  0  0  0  0
   11.7756   10.2554   20.8841 N   0  0  0  0  0  0  0  0  0  0  0  0
    8.9876   11.9370   19.8757 O   0  0  0  0  0  0  0  0  0  0  0  0
    6.0167    8.4478   21.1089 C   0  0  0  0  0  0  0  0  0  0  0  0
   11.0002   10.8890   20.0262 C   0  0  0  0  0  0  0  0  0  0  0  0
    2.1721    7.7393   20.0315 O   0  0  0  0  0  0  0  0  0  0  0  0
    9.1107   10.3880   21.3769 N   0  0  0  0  0  0  0  0  0  0  0  0
    3.9102    9.2008   20.3124 C   0  0  0  0  0  0  0  0  0  0  0  0
   12.7292   10.9960   18.4597 C   0  0  0  0  0  0  0  0  0  0  0  0
    9.3798    6.6793   23.6625 C   0  0  0  0  0  0  0  0  0  0  0  0
   14.7425   10.0739   19.0802 O   0  0  0  0  0  0  0  0  0  0  0  0
    5.1894    9.4673   20.7118 C   0  0  0  0  0  0  0  0  0  0  0  0
    7.3773    8.8224   21.4870 C   0  0  0  0  0  0  0  0  0  0  0  0
    8.4391    6.6439   21.0235 C   0  0  0  0  0  0  0  0  0  0  0  0
    9.6494   11.1353   20.4167 C   0  0  0  0  0  0  0  0  0  0  0  0
    8.1431    7.6829   21.9046 C   0  0  0  0  0  0  0  0  0  0  0  0
    7.7796   10.1314   21.5115 N   0  0  0  0  0  0  0  0  0  0  0  0
    9.2768    5.6183   21.4437 C   0  0  0  0  0  0  0  0  0  0  0  0
    8.6315    7.7322   23.1768 C   0  0  0  0  0  0  0  0  0  0  0  0
   13.0537    9.9821   20.5781 C   0  0  0  0  0  0  0  0  0  0  0  0
   10.3850    4.6575   23.2386 O   0  0  0  0  0  0  0  0  0  0  0  0
    4.2069    6.8450   20.7994 C   0  0  0  0  0  0  0  0  0  0  0  0
    3.0726   10.1043   19.8522 O   0  0  0  0  0  0  0  0  0  0  0  0
    5.5057    7.1196   21.1155 C   0  0  0  0  0  0  0  0  0  0  0  0
    7.0367   11.0229   21.9948 O   0  0  0  0  0  0  0  0  0  0  0  0
  1  8  4  0
  1 12  4  0
  2  9  1  0
  2 11  4  0
  2 25  4  0
  3 12  4  0
  3 14  1  0
  3 23  4  0
  4 13  4  0
  4 21  4  0
  4 24  1  0
  5  8  4  0
  5 23  4  0
  6 18  2  0
  7 15  4  0
  7 16  1  0
  7 27  4  0
  8 18  1  0
 10 18  1  0
 10 20  1  0
 11 15  4  0
 11 26  1  0
 13 22  4  0
 16 19  1  0
 16 20  2  0
 17 19  4  0
 17 21  4  0
 19 22  4  0
 20 28  1  0
 25 27  4  0
M  END
$$$$

 Created by Python create_sdf_string function

 28 30  0  0  0  0  0  0  0  0999 V2000
   11.4592   11.2893   18.7941 C   0  0  0  0  0  0  0  0  0  0  0  0
    3.4202    7.9009   20.3866 C   0  0  0  0  0  0  0  0  0  0  0  0
   13.5280   10.3522   19.3586 C   0  0  0  0  0  0  0  0  0  0  0  0
    9.6923    5.6468   22.7891 C   0  0  0  0  0  0  0  0  0  0  0  0
   11.7756   10.2554   20.8841 N   0  0  0  0  0  0  0  0  0  0  0  0
    8.9876   11.9370   19.8757 O   0  0  0  0  0  0  0  0  0  0  0  0
    6.0167    8.4478   21.1089 C   0  0  0  0  0  0  0  0  0  0  0  0
   11.0002   10.8890   20.0262 C   0  0  0  0  0  0  0  0  0  0  0  0
    2.1721    7.7393   20.0315 O   0  0  0  0  0  0  0  0  0  0  0  0
    9.1107   10.3880   21.3769 N   0  0  0  0  0  0  0  0  0  0  0  0
    3.9102    9.2008   20.3124 C   0  0  0  0  0  0  0  0  0  0  0  0
   12.7292   10.9960   18.4597 C   0  0  0  0  0  0  0  0  0  0  0  0
    9.3798    6.6793   23.6625 C   0  0  0  0  0  0  0  0  0  0  0  0
   14.7425   10.0739   19.0802 O   0  0  0  0  0  0  0  0  0  0  0  0
    5.1894    9.4673   20.7118 C   0  0  0  0  0  0  0  0  0  0  0  0
    7.3773    8.8224   21.4870 C   0  0  0  0  0  0  0  0  0  0  0  0
    8.4391    6.6439   21.0235 C   0  0  0  0  0  0  0  0  0  0  0  0
    9.6494   11.1353   20.4167 C   0  0  0  0  0  0  0  0  0  0  0  0
    8.1431    7.6829   21.9046 C   0  0  0  0  0  0  0  0  0  0  0  0
    7.7796   10.1314   21.5115 N   0  0  0  0  0  0  0  0  0  0  0  0
    9.2768    5.6183   21.4437 C   0  0  0  0  0  0  0  0  0  0  0  0
    8.6315    7.7322   23.1768 C   0  0  0  0  0  0  0  0  0  0  0  0
   13.0537    9.9821   20.5781 C   0  0  0  0  0  0  0  0  0  0  0  0
   10.3850    4.6575   23.2386 O   0  0  0  0  0  0  0  0  0  0  0  0
    4.2069    6.8450   20.7994 C   0  0  0  0  0  0  0  0  0  0  0  0
    3.0726   10.1043   19.8522 O   0  0  0  0  0  0  0  0  0  0  0  0
    5.5057    7.1196   21.1155 C   0  0  0  0  0  0  0  0  0  0  0  0
    7.0367   11.0229   21.9948 O   0  0  0  0  0  0  0  0  0  0  0  0
  1  8  4  0
  1 12  4  0
  2  9  1  0
  2 11  4  0
  2 25  4  0
  3 12  4  0
  3 14  1  0
  3 23  4  0
  4 13  4  0
  4 21  4  0
  4 24  1  0
  5  8  4  0
  5 23  4  0
  6 18  2  0
  7 15  4  0
  7 16  1  0
  7 27  4  0
  8 18  1  0
 10 18  1  0
 10 20  1  0
 11 15  4  0
 11 26  1  0
 13 22  4  0
 16 19  1  0
 16 20  2  0
 17 19  4  0
 17 21  4  0
 19 22  4  0
 20 28  1  0
 25 27  4  0
M  END
$$$$

 Created by Python create_sdf_string function

 28 30  0  0  0  0  0  0  0  0999 V2000
   11.4592   11.2893   18.7941 C   0  0  0  0  0  0  0  0  0  0  0  0
    3.4202    7.9009   20.3866 C   0  0  0  0  0  0  0  0  0  0  0  0
   13.5280   10.3522   19.3586 C   0  0  0  0  0  0  0  0  0  0  0  0
    9.6923    5.6468   22.7891 C   0  0  0  0  0  0  0  0  0  0  0  0
   11.7756   10.2554   20.8841 N   0  0  0  0  0  0  0  0  0  0  0  0
    8.9876   11.9370   19.8757 O   0  0  0  0  0  0  0  0  0  0  0  0
    6.0167    8.4478   21.1089 C   0  0  0  0  0  0  0  0  0  0  0  0
   11.0002   10.8890   20.0262 C   0  0  0  0  0  0  0  0  0  0  0  0
    2.1721    7.7393   20.0315 O   0  0  0  0  0  0  0  0  0  0  0  0
    9.1107   10.3880   21.3769 N   0  0  0  0  0  0  0  0  0  0  0  0
    3.9102    9.2008   20.3124 C   0  0  0  0  0  0  0  0  0  0  0  0
   12.7292   10.9960   18.4597 C   0  0  0  0  0  0  0  0  0  0  0  0
    9.3798    6.6793   23.6625 C   0  0  0  0  0  0  0  0  0  0  0  0
   14.7425   10.0739   19.0802 O   0  0  0  0  0  0  0  0  0  0  0  0
    5.1894    9.4673   20.7118 C   0  0  0  0  0  0  0  0  0  0  0  0
    7.3773    8.8224   21.4870 C   0  0  0  0  0  0  0  0  0  0  0  0
    8.4391    6.6439   21.0235 C   0  0  0  0  0  0  0  0  0  0  0  0
    9.6494   11.1353   20.4167 C   0  0  0  0  0  0  0  0  0  0  0  0
    8.1431    7.6829   21.9046 C   0  0  0  0  0  0  0  0  0  0  0  0
    7.7796   10.1314   21.5115 N   0  0  0  0  0  0  0  0  0  0  0  0
    9.2768    5.6183   21.4437 C   0  0  0  0  0  0  0  0  0  0  0  0
    8.6315    7.7322   23.1768 C   0  0  0  0  0  0  0  0  0  0  0  0
   13.0537    9.9821   20.5781 C   0  0  0  0  0  0  0  0  0  0  0  0
   10.3850    4.6575   23.2386 O   0  0  0  0  0  0  0  0  0  0  0  0
    4.2069    6.8450   20.7994 C   0  0  0  0  0  0  0  0  0  0  0  0
    3.0726   10.1043   19.8522 O   0  0  0  0  0  0  0  0  0  0  0  0
    5.5057    7.1196   21.1155 C   0  0  0  0  0  0  0  0  0  0  0  0
    7.0367   11.0229   21.9948 O   0  0  0  0  0  0  0  0  0  0  0  0
  1  8  4  0
  1 12  4  0
  2  9  1  0
  2 11  4  0
  2 25  4  0
  3 12  4  0
  3 14  1  0
  3 23  4  0
  4 13  4  0
  4 21  4  0
  4 24  1  0
  5  8  4  0
  5 23  4  0
  6 18  2  0
  7 15  4  0
  7 16  1  0
  7 27  4  0
  8 18  1  0
 10 18  1  0
 10 20  1  0
 11 15  4  0
 11 26  1  0
 13 22  4  0
 16 19  1  0
 16 20  2  0
 17 19  4  0
 17 21  4  0
 19 22  4  0
 20 28  1  0
 25 27  4  0
M  END
$$$$

 Created by Python create_sdf_string function

 28 30  0  0  0  0  0  0  0  0999 V2000
   11.4592   11.2893   18.7941 C   0  0  0  0  0  0  0  0  0  0  0  0
    3.4202    7.9009   20.3866 C   0  0  0  0  0  0  0  0  0  0  0  0
   13.5280   10.3522   19.3586 C   0  0  0  0  0  0  0  0  0  0  0  0
    9.6923    5.6468   22.7891 C   0  0  0  0  0  0  0  0  0  0  0  0
   11.7756   10.2554   20.8841 N   0  0  0  0  0  0  0  0  0  0  0  0
    8.9876   11.9370   19.8757 O   0  0  0  0  0  0  0  0  0  0  0  0
    6.0167    8.4478   21.1089 C   0  0  0  0  0  0  0  0  0  0  0  0
   11.0002   10.8890   20.0262 C   0  0  0  0  0  0  0  0  0  0  0  0
    2.1721    7.7393   20.0315 O   0  0  0  0  0  0  0  0  0  0  0  0
    9.1107   10.3880   21.3769 N   0  0  0  0  0  0  0  0  0  0  0  0
    3.9102    9.2008   20.3124 C   0  0  0  0  0  0  0  0  0  0  0  0
   12.7292   10.9960   18.4597 C   0  0  0  0  0  0  0  0  0  0  0  0
    9.3798    6.6793   23.6625 C   0  0  0  0  0  0  0  0  0  0  0  0
   14.7425   10.0739   19.0802 O   0  0  0  0  0  0  0  0  0  0  0  0
    5.1894    9.4673   20.7118 C   0  0  0  0  0  0  0  0  0  0  0  0
    7.3773    8.8224   21.4870 C   0  0  0  0  0  0  0  0  0  0  0  0
    8.4391    6.6439   21.0235 C   0  0  0  0  0  0  0  0  0  0  0  0
    9.6494   11.1353   20.4167 C   0  0  0  0  0  0  0  0  0  0  0  0
    8.1431    7.6829   21.9046 C   0  0  0  0  0  0  0  0  0  0  0  0
    7.7796   10.1314   21.5115 N   0  0  0  0  0  0  0  0  0  0  0  0
    9.2768    5.6183   21.4437 C   0  0  0  0  0  0  0  0  0  0  0  0
    8.6315    7.7322   23.1768 C   0  0  0  0  0  0  0  0  0  0  0  0
   13.0537    9.9821   20.5781 C   0  0  0  0  0  0  0  0  0  0  0  0
   10.3850    4.6575   23.2386 O   0  0  0  0  0  0  0  0  0  0  0  0
    4.2069    6.8450   20.7994 C   0  0  0  0  0  0  0  0  0  0  0  0
    3.0726   10.1043   19.8522 O   0  0  0  0  0  0  0  0  0  0  0  0
    5.5057    7.1196   21.1155 C   0  0  0  0  0  0  0  0  0  0  0  0
    7.0367   11.0229   21.9948 O   0  0  0  0  0  0  0  0  0  0  0  0
  1  8  4  0
  1 12  4  0
  2  9  1  0
  2 11  4  0
  2 25  4  0
  3 12  4  0
  3 14  1  0
  3 23  4  0
  4 13  4  0
  4 21  4  0
  4 24  1  0
  5  8  4  0
  5 23  4  0
  6 18  2  0
  7 15  4  0
  7 16  1  0
  7 27  4  0
  8 18  1  0
 10 18  1  0
 10 20  1  0
 11 15  4  0
 11 26  1  0
 13 22  4  0
 16 19  1  0
 16 20  2  0
 17 19  4  0
 17 21  4  0
 19 22  4  0
 20 28  1  0
 25 27  4  0
M  END
$$$$

 Created by Python create_sdf_string function

 28 30  0  0  0  0  0  0  0  0999 V2000
   11.4592   11.2893   18.7941 C   0  0  0  0  0  0  0  0  0  0  0  0
    3.4202    7.9009   20.3866 C   0  0  0  0  0  0  0  0  0  0  0  0
   13.5280   10.3522   19.3586 C   0  0  0  0  0  0  0  0  0  0  0  0
    9.6923    5.6468   22.7891 C   0  0  0  0  0  0  0  0  0  0  0  0
   11.7756   10.2554   20.8841 N   0  0  0  0  0  0  0  0  0  0  0  0
    8.9876   11.9370   19.8757 O   0  0  0  0  0  0  0  0  0  0  0  0
    6.0167    8.4478   21.1089 C   0  0  0  0  0  0  0  0  0  0  0  0
   11.0002   10.8890   20.0262 C   0  0  0  0  0  0  0  0  0  0  0  0
    2.1721    7.7393   20.0315 O   0  0  0  0  0  0  0  0  0  0  0  0
    9.1107   10.3880   21.3769 N   0  0  0  0  0  0  0  0  0  0  0  0
    3.9102    9.2008   20.3124 C   0  0  0  0  0  0  0  0  0  0  0  0
   12.7292   10.9960   18.4597 C   0  0  0  0  0  0  0  0  0  0  0  0
    9.3798    6.6793   23.6625 C   0  0  0  0  0  0  0  0  0  0  0  0
   14.7425   10.0739   19.0802 O   0  0  0  0  0  0  0  0  0  0  0  0
    5.1894    9.4673   20.7118 C   0  0  0  0  0  0  0  0  0  0  0  0
    7.3773    8.8224   21.4870 C   0  0  0  0  0  0  0  0  0  0  0  0
    8.4391    6.6439   21.0235 C   0  0  0  0  0  0  0  0  0  0  0  0
    9.6494   11.1353   20.4167 C   0  0  0  0  0  0  0  0  0  0  0  0
    8.1431    7.6829   21.9046 C   0  0  0  0  0  0  0  0  0  0  0  0
    7.7796   10.1314   21.5115 N   0  0  0  0  0  0  0  0  0  0  0  0
    9.2768    5.6183   21.4437 C   0  0  0  0  0  0  0  0  0  0  0  0
    8.6315    7.7322   23.1768 C   0  0  0  0  0  0  0  0  0  0  0  0
   13.0537    9.9821   20.5781 C   0  0  0  0  0  0  0  0  0  0  0  0
   10.3850    4.6575   23.2386 O   0  0  0  0  0  0  0  0  0  0  0  0
    4.2069    6.8450   20.7994 C   0  0  0  0  0  0  0  0  0  0  0  0
    3.0726   10.1043   19.8522 O   0  0  0  0  0  0  0  0  0  0  0  0
    5.5057    7.1196   21.1155 C   0  0  0  0  0  0  0  0  0  0  0  0
    7.0367   11.0229   21.9948 O   0  0  0  0  0  0  0  0  0  0  0  0
  1  8  4  0
  1 12  4  0
  2  9  1  0
  2 11  4  0
  2 25  4  0
  3 12  4  0
  3 14  1  0
  3 23  4  0
  4 13  4  0
  4 21  4  0
  4 24  1  0
  5  8  4  0
  5 23  4  0
  6 18  2  0
  7 15  4  0
  7 16  1  0
  7 27  4  0
  8 18  1  0
 10 18  1  0
 10 20  1  0
 11 15  4  0
 11 26  1  0
 13 22  4  0
 16 19  1  0
 16 20  2  0
 17 19  4  0
 17 21  4  0
 19 22  4  0
 20 28  1  0
 25 27  4  0
M  END
$$$$

 Created by Python create_sdf_string function

 28 30  0  0  0  0  0  0  0  0999 V2000
   11.4592   11.2893   18.7941 C   0  0  0  0  0  0  0  0  0  0  0  0
    3.4202    7.9009   20.3866 C   0  0  0  0  0  0  0  0  0  0  0  0
   13.5280   10.3522   19.3586 C   0  0  0  0  0  0  0  0  0  0  0  0
    9.6923    5.6468   22.7891 C   0  0  0  0  0  0  0  0  0  0  0  0
   11.7756   10.2554   20.8841 N   0  0  0  0  0  0  0  0  0  0  0  0
    8.9876   11.9370   19.8757 O   0  0  0  0  0  0  0  0  0  0  0  0
    6.0167    8.4478   21.1089 C   0  0  0  0  0  0  0  0  0  0  0  0
   11.0002   10.8890   20.0262 C   0  0  0  0  0  0  0  0  0  0  0  0
    2.1721    7.7393   20.0315 O   0  0  0  0  0  0  0  0  0  0  0  0
    9.1107   10.3880   21.3769 N   0  0  0  0  0  0  0  0  0  0  0  0
    3.9102    9.2008   20.3124 C   0  0  0  0  0  0  0  0  0  0  0  0
   12.7292   10.9960   18.4597 C   0  0  0  0  0  0  0  0  0  0  0  0
    9.3798    6.6793   23.6625 C   0  0  0  0  0  0  0  0  0  0  0  0
   14.7425   10.0739   19.0802 O   0  0  0  0  0  0  0  0  0  0  0  0
    5.1894    9.4673   20.7118 C   0  0  0  0  0  0  0  0  0  0  0  0
    7.3773    8.8224   21.4870 C   0  0  0  0  0  0  0  0  0  0  0  0
    8.4391    6.6439   21.0235 C   0  0  0  0  0  0  0  0  0  0  0  0
    9.6494   11.1353   20.4167 C   0  0  0  0  0  0  0  0  0  0  0  0
    8.1431    7.6829   21.9046 C   0  0  0  0  0  0  0  0  0  0  0  0
    7.7796   10.1314   21.5115 N   0  0  0  0  0  0  0  0  0  0  0  0
    9.2768    5.6183   21.4437 C   0  0  0  0  0  0  0  0  0  0  0  0
    8.6315    7.7322   23.1768 C   0  0  0  0  0  0  0  0  0  0  0  0
   13.0537    9.9821   20.5781 C   0  0  0  0  0  0  0  0  0  0  0  0
   10.3850    4.6575   23.2386 O   0  0  0  0  0  0  0  0  0  0  0  0
    4.2069    6.8450   20.7994 C   0  0  0  0  0  0  0  0  0  0  0  0
    3.0726   10.1043   19.8522 O   0  0  0  0  0  0  0  0  0  0  0  0
    5.5057    7.1196   21.1155 C   0  0  0  0  0  0  0  0  0  0  0  0
    7.0367   11.0229   21.9948 O   0  0  0  0  0  0  0  0  0  0  0  0
  1  8  4  0
  1 12  4  0
  2  9  1  0
  2 11  4  0
  2 25  4  0
  3 12  4  0
  3 14  1  0
  3 23  4  0
  4 13  4  0
  4 21  4  0
  4 24  1  0
  5  8  4  0
  5 23  4  0
  6 18  2  0
  7 15  4  0
  7 16  1  0
  7 27  4  0
  8 18  1  0
 10 18  1  0
 10 20  1  0
 11 15  4  0
 11 26  1  0
 13 22  4  0
 16 19  1  0
 16 20  2  0
 17 19  4  0
 17 21  4  0
 19 22  4  0
 20 28  1  0
 25 27  4  0
M  END
$$$$

 Created by Python create_sdf_string function

 28 30  0  0  0  0  0  0  0  0999 V2000
   11.4592   11.2893   18.7941 C   0  0  0  0  0  0  0  0  0  0  0  0
    3.4202    7.9009   20.3866 C   0  0  0  0  0  0  0  0  0  0  0  0
   13.5280   10.3522   19.3586 C   0  0  0  0  0  0  0  0  0  0  0  0
    9.6923    5.6468   22.7891 C   0  0  0  0  0  0  0  0  0  0  0  0
   11.7756   10.2554   20.8841 N   0  0  0  0  0  0  0  0  0  0  0  0
    8.9876   11.9370   19.8757 O   0  0  0  0  0  0  0  0  0  0  0  0
    6.0167    8.4478   21.1089 C   0  0  0  0  0  0  0  0  0  0  0  0
   11.0002   10.8890   20.0262 C   0  0  0  0  0  0  0  0  0  0  0  0
    2.1721    7.7393   20.0315 O   0  0  0  0  0  0  0  0  0  0  0  0
    9.1107   10.3880   21.3769 N   0  0  0  0  0  0  0  0  0  0  0  0
    3.9102    9.2008   20.3124 C   0  0  0  0  0  0  0  0  0  0  0  0
   12.7292   10.9960   18.4597 C   0  0  0  0  0  0  0  0  0  0  0  0
    9.3798    6.6793   23.6625 C   0  0  0  0  0  0  0  0  0  0  0  0
   14.7425   10.0739   19.0802 O   0  0  0  0  0  0  0  0  0  0  0  0
    5.1894    9.4673   20.7118 C   0  0  0  0  0  0  0  0  0  0  0  0
    7.3773    8.8224   21.4870 C   0  0  0  0  0  0  0  0  0  0  0  0
    8.4391    6.6439   21.0235 C   0  0  0  0  0  0  0  0  0  0  0  0
    9.6494   11.1353   20.4167 C   0  0  0  0  0  0  0  0  0  0  0  0
    8.1431    7.6829   21.9046 C   0  0  0  0  0  0  0  0  0  0  0  0
    7.7796   10.1314   21.5115 N   0  0  0  0  0  0  0  0  0  0  0  0
    9.2768    5.6183   21.4437 C   0  0  0  0  0  0  0  0  0  0  0  0
    8.6315    7.7322   23.1768 C   0  0  0  0  0  0  0  0  0  0  0  0
   13.0537    9.9821   20.5781 C   0  0  0  0  0  0  0  0  0  0  0  0
   10.3850    4.6575   23.2386 O   0  0  0  0  0  0  0  0  0  0  0  0
    4.2069    6.8450   20.7994 C   0  0  0  0  0  0  0  0  0  0  0  0
    3.0726   10.1043   19.8522 O   0  0  0  0  0  0  0  0  0  0  0  0
    5.5057    7.1196   21.1155 C   0  0  0  0  0  0  0  0  0  0  0  0
    7.0367   11.0229   21.9948 O   0  0  0  0  0  0  0  0  0  0  0  0
  1  8  4  0
  1 12  4  0
  2  9  1  0
  2 11  4  0
  2 25  4  0
  3 12  4  0
  3 14  1  0
  3 23  4  0
  4 13  4  0
  4 21  4  0
  4 24  1  0
  5  8  4  0
  5 23  4  0
  6 18  2  0
  7 15  4  0
  7 16  1  0
  7 27  4  0
  8 18  1  0
 10 18  1  0
 10 20  1  0
 11 15  4  0
 11 26  1  0
 13 22  4  0
 16 19  1  0
 16 20  2  0
 17 19  4  0
 17 21  4  0
 19 22  4  0
 20 28  1  0
 25 27  4  0
M  END
$$$$

 Created by Python create_sdf_string function

 28 30  0  0  0  0  0  0  0  0999 V2000
   11.4592   11.2893   18.7941 C   0  0  0  0  0  0  0  0  0  0  0  0
    3.4202    7.9009   20.3866 C   0  0  0  0  0  0  0  0  0  0  0  0
   13.5280   10.3522   19.3586 C   0  0  0  0  0  0  0  0  0  0  0  0
    9.6923    5.6468   22.7891 C   0  0  0  0  0  0  0  0  0  0  0  0
   11.7756   10.2554   20.8841 N   0  0  0  0  0  0  0  0  0  0  0  0
    8.9876   11.9370   19.8757 O   0  0  0  0  0  0  0  0  0  0  0  0
    6.0167    8.4478   21.1089 C   0  0  0  0  0  0  0  0  0  0  0  0
   11.0002   10.8890   20.0262 C   0  0  0  0  0  0  0  0  0  0  0  0
    2.1721    7.7393   20.0315 O   0  0  0  0  0  0  0  0  0  0  0  0
    9.1107   10.3880   21.3769 N   0  0  0  0  0  0  0  0  0  0  0  0
    3.9102    9.2008   20.3124 C   0  0  0  0  0  0  0  0  0  0  0  0
   12.7292   10.9960   18.4597 C   0  0  0  0  0  0  0  0  0  0  0  0
    9.3798    6.6793   23.6625 C   0  0  0  0  0  0  0  0  0  0  0  0
   14.7425   10.0739   19.0802 O   0  0  0  0  0  0  0  0  0  0  0  0
    5.1894    9.4673   20.7118 C   0  0  0  0  0  0  0  0  0  0  0  0
    7.3773    8.8224   21.4870 C   0  0  0  0  0  0  0  0  0  0  0  0
    8.4391    6.6439   21.0235 C   0  0  0  0  0  0  0  0  0  0  0  0
    9.6494   11.1353   20.4167 C   0  0  0  0  0  0  0  0  0  0  0  0
    8.1431    7.6829   21.9046 C   0  0  0  0  0  0  0  0  0  0  0  0
    7.7796   10.1314   21.5115 N   0  0  0  0  0  0  0  0  0  0  0  0
    9.2768    5.6183   21.4437 C   0  0  0  0  0  0  0  0  0  0  0  0
    8.6315    7.7322   23.1768 C   0  0  0  0  0  0  0  0  0  0  0  0
   13.0537    9.9821   20.5781 C   0  0  0  0  0  0  0  0  0  0  0  0
   10.3850    4.6575   23.2386 O   0  0  0  0  0  0  0  0  0  0  0  0
    4.2069    6.8450   20.7994 C   0  0  0  0  0  0  0  0  0  0  0  0
    3.0726   10.1043   19.8522 O   0  0  0  0  0  0  0  0  0  0  0  0
    5.5057    7.1196   21.1155 C   0  0  0  0  0  0  0  0  0  0  0  0
    7.0367   11.0229   21.9948 O   0  0  0  0  0  0  0  0  0  0  0  0
  1  8  4  0
  1 12  4  0
  2  9  1  0
  2 11  4  0
  2 25  4  0
  3 12  4  0
  3 14  1  0
  3 23  4  0
  4 13  4  0
  4 21  4  0
  4 24  1  0
  5  8  4  0
  5 23  4  0
  6 18  2  0
  7 15  4  0
  7 16  1  0
  7 27  4  0
  8 18  1  0
 10 18  1  0
 10 20  1  0
 11 15  4  0
 11 26  1  0
 13 22  4  0
 16 19  1  0
 16 20  2  0
 17 19  4  0
 17 21  4  0
 19 22  4  0
 20 28  1  0
 25 27  4  0
M  END
$$$$

 Created by Python create_sdf_string function

 28 30  0  0  0  0  0  0  0  0999 V2000
   11.4592   11.2893   18.7941 C   0  0  0  0  0  0  0  0  0  0  0  0
    3.4202    7.9009   20.3866 C   0  0  0  0  0  0  0  0  0  0  0  0
   13.5280   10.3522   19.3586 C   0  0  0  0  0  0  0  0  0  0  0  0
    9.6923    5.6468   22.7891 C   0  0  0  0  0  0  0  0  0  0  0  0
   11.7756   10.2554   20.8841 N   0  0  0  0  0  0  0  0  0  0  0  0
    8.9876   11.9370   19.8757 O   0  0  0  0  0  0  0  0  0  0  0  0
    6.0167    8.4478   21.1089 C   0  0  0  0  0  0  0  0  0  0  0  0
   11.0002   10.8890   20.0262 C   0  0  0  0  0  0  0  0  0  0  0  0
    2.1721    7.7393   20.0315 O   0  0  0  0  0  0  0  0  0  0  0  0
    9.1107   10.3880   21.3769 N   0  0  0  0  0  0  0  0  0  0  0  0
    3.9102    9.2008   20.3124 C   0  0  0  0  0  0  0  0  0  0  0  0
   12.7292   10.9960   18.4597 C   0  0  0  0  0  0  0  0  0  0  0  0
    9.3798    6.6793   23.6625 C   0  0  0  0  0  0  0  0  0  0  0  0
   14.7425   10.0739   19.0802 O   0  0  0  0  0  0  0  0  0  0  0  0
    5.1894    9.4673   20.7118 C   0  0  0  0  0  0  0  0  0  0  0  0
    7.3773    8.8224   21.4870 C   0  0  0  0  0  0  0  0  0  0  0  0
    8.4391    6.6439   21.0235 C   0  0  0  0  0  0  0  0  0  0  0  0
    9.6494   11.1353   20.4167 C   0  0  0  0  0  0  0  0  0  0  0  0
    8.1431    7.6829   21.9046 C   0  0  0  0  0  0  0  0  0  0  0  0
    7.7796   10.1314   21.5115 N   0  0  0  0  0  0  0  0  0  0  0  0
    9.2768    5.6183   21.4437 C   0  0  0  0  0  0  0  0  0  0  0  0
    8.6315    7.7322   23.1768 C   0  0  0  0  0  0  0  0  0  0  0  0
   13.0537    9.9821   20.5781 C   0  0  0  0  0  0  0  0  0  0  0  0
   10.3850    4.6575   23.2386 O   0  0  0  0  0  0  0  0  0  0  0  0
    4.2069    6.8450   20.7994 C   0  0  0  0  0  0  0  0  0  0  0  0
    3.0726   10.1043   19.8522 O   0  0  0  0  0  0  0  0  0  0  0  0
    5.5057    7.1196   21.1155 C   0  0  0  0  0  0  0  0  0  0  0  0
    7.0367   11.0229   21.9948 O   0  0  0  0  0  0  0  0  0  0  0  0
  1  8  4  0
  1 12  4  0
  2  9  1  0
  2 11  4  0
  2 25  4  0
  3 12  4  0
  3 14  1  0
  3 23  4  0
  4 13  4  0
  4 21  4  0
  4 24  1  0
  5  8  4  0
  5 23  4  0
  6 18  2  0
  7 15  4  0
  7 16  1  0
  7 27  4  0
  8 18  1  0
 10 18  1  0
 10 20  1  0
 11 15  4  0
 11 26  1  0
 13 22  4  0
 16 19  1  0
 16 20  2  0
 17 19  4  0
 17 21  4  0
 19 22  4  0
 20 28  1  0
 25 27  4  0
M  END
$$$$

 Created by Python create_sdf_string function

 28 30  0  0  0  0  0  0  0  0999 V2000
   11.4592   11.2893   18.7941 C   0  0  0  0  0  0  0  0  0  0  0  0
    3.4202    7.9009   20.3866 C   0  0  0  0  0  0  0  0  0  0  0  0
   13.5280   10.3522   19.3586 C   0  0  0  0  0  0  0  0  0  0  0  0
    9.6923    5.6468   22.7891 C   0  0  0  0  0  0  0  0  0  0  0  0
   11.7756   10.2554   20.8841 N   0  0  0  0  0  0  0  0  0  0  0  0
    8.9876   11.9370   19.8757 O   0  0  0  0  0  0  0  0  0  0  0  0
    6.0167    8.4478   21.1089 C   0  0  0  0  0  0  0  0  0  0  0  0
   11.0002   10.8890   20.0262 C   0  0  0  0  0  0  0  0  0  0  0  0
    2.1721    7.7393   20.0315 O   0  0  0  0  0  0  0  0  0  0  0  0
    9.1107   10.3880   21.3769 N   0  0  0  0  0  0  0  0  0  0  0  0
    3.9102    9.2008   20.3124 C   0  0  0  0  0  0  0  0  0  0  0  0
   12.7292   10.9960   18.4597 C   0  0  0  0  0  0  0  0  0  0  0  0
    9.3798    6.6793   23.6625 C   0  0  0  0  0  0  0  0  0  0  0  0
   14.7425   10.0739   19.0802 O   0  0  0  0  0  0  0  0  0  0  0  0
    5.1894    9.4673   20.7118 C   0  0  0  0  0  0  0  0  0  0  0  0
    7.3773    8.8224   21.4870 C   0  0  0  0  0  0  0  0  0  0  0  0
    8.4391    6.6439   21.0235 C   0  0  0  0  0  0  0  0  0  0  0  0
    9.6494   11.1353   20.4167 C   0  0  0  0  0  0  0  0  0  0  0  0
    8.1431    7.6829   21.9046 C   0  0  0  0  0  0  0  0  0  0  0  0
    7.7796   10.1314   21.5115 N   0  0  0  0  0  0  0  0  0  0  0  0
    9.2768    5.6183   21.4437 C   0  0  0  0  0  0  0  0  0  0  0  0
    8.6315    7.7322   23.1768 C   0  0  0  0  0  0  0  0  0  0  0  0
   13.0537    9.9821   20.5781 C   0  0  0  0  0  0  0  0  0  0  0  0
   10.3850    4.6575   23.2386 O   0  0  0  0  0  0  0  0  0  0  0  0
    4.2069    6.8450   20.7994 C   0  0  0  0  0  0  0  0  0  0  0  0
    3.0726   10.1043   19.8522 O   0  0  0  0  0  0  0  0  0  0  0  0
    5.5057    7.1196   21.1155 C   0  0  0  0  0  0  0  0  0  0  0  0
    7.0367   11.0229   21.9948 O   0  0  0  0  0  0  0  0  0  0  0  0
  1  8  4  0
  1 12  4  0
  2  9  1  0
  2 11  4  0
  2 25  4  0
  3 12  4  0
  3 14  1  0
  3 23  4  0
  4 13  4  0
  4 21  4  0
  4 24  1  0
  5  8  4  0
  5 23  4  0
  6 18  2  0
  7 15  4  0
  7 16  1  0
  7 27  4  0
  8 18  1  0
 10 18  1  0
 10 20  1  0
 11 15  4  0
 11 26  1  0
 13 22  4  0
 16 19  1  0
 16 20  2  0
 17 19  4  0
 17 21  4  0
 19 22  4  0
 20 28  1  0
 25 27  4  0
M  END
$$$$

 Created by Python create_sdf_string function

 28 30  0  0  0  0  0  0  0  0999 V2000
   11.4592   11.2893   18.7941 C   0  0  0  0  0  0  0  0  0  0  0  0
    3.4202    7.9009   20.3866 C   0  0  0  0  0  0  0  0  0  0  0  0
   13.5280   10.3522   19.3586 C   0  0  0  0  0  0  0  0  0  0  0  0
    9.6923    5.6468   22.7891 C   0  0  0  0  0  0  0  0  0  0  0  0
   11.7756   10.2554   20.8841 N   0  0  0  0  0  0  0  0  0  0  0  0
    8.9876   11.9370   19.8757 O   0  0  0  0  0  0  0  0  0  0  0  0
    6.0167    8.4478   21.1089 C   0  0  0  0  0  0  0  0  0  0  0  0
   11.0002   10.8890   20.0262 C   0  0  0  0  0  0  0  0  0  0  0  0
    2.1721    7.7393   20.0315 O   0  0  0  0  0  0  0  0  0  0  0  0
    9.1107   10.3880   21.3769 N   0  0  0  0  0  0  0  0  0  0  0  0
    3.9102    9.2008   20.3124 C   0  0  0  0  0  0  0  0  0  0  0  0
   12.7292   10.9960   18.4597 C   0  0  0  0  0  0  0  0  0  0  0  0
    9.3798    6.6793   23.6625 C   0  0  0  0  0  0  0  0  0  0  0  0
   14.7425   10.0739   19.0802 O   0  0  0  0  0  0  0  0  0  0  0  0
    5.1894    9.4673   20.7118 C   0  0  0  0  0  0  0  0  0  0  0  0
    7.3773    8.8224   21.4870 C   0  0  0  0  0  0  0  0  0  0  0  0
    8.4391    6.6439   21.0235 C   0  0  0  0  0  0  0  0  0  0  0  0
    9.6494   11.1353   20.4167 C   0  0  0  0  0  0  0  0  0  0  0  0
    8.1431    7.6829   21.9046 C   0  0  0  0  0  0  0  0  0  0  0  0
    7.7796   10.1314   21.5115 N   0  0  0  0  0  0  0  0  0  0  0  0
    9.2768    5.6183   21.4437 C   0  0  0  0  0  0  0  0  0  0  0  0
    8.6315    7.7322   23.1768 C   0  0  0  0  0  0  0  0  0  0  0  0
   13.0537    9.9821   20.5781 C   0  0  0  0  0  0  0  0  0  0  0  0
   10.3850    4.6575   23.2386 O   0  0  0  0  0  0  0  0  0  0  0  0
    4.2069    6.8450   20.7994 C   0  0  0  0  0  0  0  0  0  0  0  0
    3.0726   10.1043   19.8522 O   0  0  0  0  0  0  0  0  0  0  0  0
    5.5057    7.1196   21.1155 C   0  0  0  0  0  0  0  0  0  0  0  0
    7.0367   11.0229   21.9948 O   0  0  0  0  0  0  0  0  0  0  0  0
  1  8  4  0
  1 12  4  0
  2  9  1  0
  2 11  4  0
  2 25  4  0
  3 12  4  0
  3 14  1  0
  3 23  4  0
  4 13  4  0
  4 21  4  0
  4 24  1  0
  5  8  4  0
  5 23  4  0
  6 18  2  0
  7 15  4  0
  7 16  1  0
  7 27  4  0
  8 18  1  0
 10 18  1  0
 10 20  1  0
 11 15  4  0
 11 26  1  0
 13 22  4  0
 16 19  1  0
 16 20  2  0
 17 19  4  0
 17 21  4  0
 19 22  4  0
 20 28  1  0
 25 27  4  0
M  END
$$$$

 Created by Python create_sdf_string function

 28 30  0  0  0  0  0  0  0  0999 V2000
   11.4592   11.2893   18.7941 C   0  0  0  0  0  0  0  0  0  0  0  0
    3.4202    7.9009   20.3866 C   0  0  0  0  0  0  0  0  0  0  0  0
   13.5280   10.3522   19.3586 C   0  0  0  0  0  0  0  0  0  0  0  0
    9.6923    5.6468   22.7891 C   0  0  0  0  0  0  0  0  0  0  0  0
   11.7756   10.2554   20.8841 N   0  0  0  0  0  0  0  0  0  0  0  0
    8.9876   11.9370   19.8757 O   0  0  0  0  0  0  0  0  0  0  0  0
    6.0167    8.4478   21.1089 C   0  0  0  0  0  0  0  0  0  0  0  0
   11.0002   10.8890   20.0262 C   0  0  0  0  0  0  0  0  0  0  0  0
    2.1721    7.7393   20.0315 O   0  0  0  0  0  0  0  0  0  0  0  0
    9.1107   10.3880   21.3769 N   0  0  0  0  0  0  0  0  0  0  0  0
    3.9102    9.2008   20.3124 C   0  0  0  0  0  0  0  0  0  0  0  0
   12.7292   10.9960   18.4597 C   0  0  0  0  0  0  0  0  0  0  0  0
    9.3798    6.6793   23.6625 C   0  0  0  0  0  0  0  0  0  0  0  0
   14.7425   10.0739   19.0802 O   0  0  0  0  0  0  0  0  0  0  0  0
    5.1894    9.4673   20.7118 C   0  0  0  0  0  0  0  0  0  0  0  0
    7.3773    8.8224   21.4870 C   0  0  0  0  0  0  0  0  0  0  0  0
    8.4391    6.6439   21.0235 C   0  0  0  0  0  0  0  0  0  0  0  0
    9.6494   11.1353   20.4167 C   0  0  0  0  0  0  0  0  0  0  0  0
    8.1431    7.6829   21.9046 C   0  0  0  0  0  0  0  0  0  0  0  0
    7.7796   10.1314   21.5115 N   0  0  0  0  0  0  0  0  0  0  0  0
    9.2768    5.6183   21.4437 C   0  0  0  0  0  0  0  0  0  0  0  0
    8.6315    7.7322   23.1768 C   0  0  0  0  0  0  0  0  0  0  0  0
   13.0537    9.9821   20.5781 C   0  0  0  0  0  0  0  0  0  0  0  0
   10.3850    4.6575   23.2386 O   0  0  0  0  0  0  0  0  0  0  0  0
    4.2069    6.8450   20.7994 C   0  0  0  0  0  0  0  0  0  0  0  0
    3.0726   10.1043   19.8522 O   0  0  0  0  0  0  0  0  0  0  0  0
    5.5057    7.1196   21.1155 C   0  0  0  0  0  0  0  0  0  0  0  0
    7.0367   11.0229   21.9948 O   0  0  0  0  0  0  0  0  0  0  0  0
  1  8  4  0
  1 12  4  0
  2  9  1  0
  2 11  4  0
  2 25  4  0
  3 12  4  0
  3 14  1  0
  3 23  4  0
  4 13  4  0
  4 21  4  0
  4 24  1  0
  5  8  4  0
  5 23  4  0
  6 18  2  0
  7 15  4  0
  7 16  1  0
  7 27  4  0
  8 18  1  0
 10 18  1  0
 10 20  1  0
 11 15  4  0
 11 26  1  0
 13 22  4  0
 16 19  1  0
 16 20  2  0
 17 19  4  0
 17 21  4  0
 19 22  4  0
 20 28  1  0
 25 27  4  0
M  END
$$$$

 Created by Python create_sdf_string function

 28 30  0  0  0  0  0  0  0  0999 V2000
   11.4592   11.2893   18.7941 C   0  0  0  0  0  0  0  0  0  0  0  0
    3.4202    7.9009   20.3866 C   0  0  0  0  0  0  0  0  0  0  0  0
   13.5280   10.3522   19.3586 C   0  0  0  0  0  0  0  0  0  0  0  0
    9.6923    5.6468   22.7891 C   0  0  0  0  0  0  0  0  0  0  0  0
   11.7756   10.2554   20.8841 N   0  0  0  0  0  0  0  0  0  0  0  0
    8.9876   11.9370   19.8757 O   0  0  0  0  0  0  0  0  0  0  0  0
    6.0167    8.4478   21.1089 C   0  0  0  0  0  0  0  0  0  0  0  0
   11.0002   10.8890   20.0262 C   0  0  0  0  0  0  0  0  0  0  0  0
    2.1721    7.7393   20.0315 O   0  0  0  0  0  0  0  0  0  0  0  0
    9.1107   10.3880   21.3769 N   0  0  0  0  0  0  0  0  0  0  0  0
    3.9102    9.2008   20.3124 C   0  0  0  0  0  0  0  0  0  0  0  0
   12.7292   10.9960   18.4597 C   0  0  0  0  0  0  0  0  0  0  0  0
    9.3798    6.6793   23.6625 C   0  0  0  0  0  0  0  0  0  0  0  0
   14.7425   10.0739   19.0802 O   0  0  0  0  0  0  0  0  0  0  0  0
    5.1894    9.4673   20.7118 C   0  0  0  0  0  0  0  0  0  0  0  0
    7.3773    8.8224   21.4870 C   0  0  0  0  0  0  0  0  0  0  0  0
    8.4391    6.6439   21.0235 C   0  0  0  0  0  0  0  0  0  0  0  0
    9.6494   11.1353   20.4167 C   0  0  0  0  0  0  0  0  0  0  0  0
    8.1431    7.6829   21.9046 C   0  0  0  0  0  0  0  0  0  0  0  0
    7.7796   10.1314   21.5115 N   0  0  0  0  0  0  0  0  0  0  0  0
    9.2768    5.6183   21.4437 C   0  0  0  0  0  0  0  0  0  0  0  0
    8.6315    7.7322   23.1768 C   0  0  0  0  0  0  0  0  0  0  0  0
   13.0537    9.9821   20.5781 C   0  0  0  0  0  0  0  0  0  0  0  0
   10.3850    4.6575   23.2386 O   0  0  0  0  0  0  0  0  0  0  0  0
    4.2069    6.8450   20.7994 C   0  0  0  0  0  0  0  0  0  0  0  0
    3.0726   10.1043   19.8522 O   0  0  0  0  0  0  0  0  0  0  0  0
    5.5057    7.1196   21.1155 C   0  0  0  0  0  0  0  0  0  0  0  0
    7.0367   11.0229   21.9948 O   0  0  0  0  0  0  0  0  0  0  0  0
  1  8  4  0
  1 12  4  0
  2  9  1  0
  2 11  4  0
  2 25  4  0
  3 12  4  0
  3 14  1  0
  3 23  4  0
  4 13  4  0
  4 21  4  0
  4 24  1  0
  5  8  4  0
  5 23  4  0
  6 18  2  0
  7 15  4  0
  7 16  1  0
  7 27  4  0
  8 18  1  0
 10 18  1  0
 10 20  1  0
 11 15  4  0
 11 26  1  0
 13 22  4  0
 16 19  1  0
 16 20  2  0
 17 19  4  0
 17 21  4  0
 19 22  4  0
 20 28  1  0
 25 27  4  0
M  END
$$$$

 Created by Python create_sdf_string function

 28 30  0  0  0  0  0  0  0  0999 V2000
   11.4592   11.2893   18.7941 C   0  0  0  0  0  0  0  0  0  0  0  0
    3.4202    7.9009   20.3866 C   0  0  0  0  0  0  0  0  0  0  0  0
   13.5280   10.3522   19.3586 C   0  0  0  0  0  0  0  0  0  0  0  0
    9.6923    5.6468   22.7891 C   0  0  0  0  0  0  0  0  0  0  0  0
   11.7756   10.2554   20.8841 N   0  0  0  0  0  0  0  0  0  0  0  0
    8.9876   11.9370   19.8757 O   0  0  0  0  0  0  0  0  0  0  0  0
    6.0167    8.4478   21.1089 C   0  0  0  0  0  0  0  0  0  0  0  0
   11.0002   10.8890   20.0262 C   0  0  0  0  0  0  0  0  0  0  0  0
    2.1721    7.7393   20.0315 O   0  0  0  0  0  0  0  0  0  0  0  0
    9.1107   10.3880   21.3769 N   0  0  0  0  0  0  0  0  0  0  0  0
    3.9102    9.2008   20.3124 C   0  0  0  0  0  0  0  0  0  0  0  0
   12.7292   10.9960   18.4597 C   0  0  0  0  0  0  0  0  0  0  0  0
    9.3798    6.6793   23.6625 C   0  0  0  0  0  0  0  0  0  0  0  0
   14.7425   10.0739   19.0802 O   0  0  0  0  0  0  0  0  0  0  0  0
    5.1894    9.4673   20.7118 C   0  0  0  0  0  0  0  0  0  0  0  0
    7.3773    8.8224   21.4870 C   0  0  0  0  0  0  0  0  0  0  0  0
    8.4391    6.6439   21.0235 C   0  0  0  0  0  0  0  0  0  0  0  0
    9.6494   11.1353   20.4167 C   0  0  0  0  0  0  0  0  0  0  0  0
    8.1431    7.6829   21.9046 C   0  0  0  0  0  0  0  0  0  0  0  0
    7.7796   10.1314   21.5115 N   0  0  0  0  0  0  0  0  0  0  0  0
    9.2768    5.6183   21.4437 C   0  0  0  0  0  0  0  0  0  0  0  0
    8.6315    7.7322   23.1768 C   0  0  0  0  0  0  0  0  0  0  0  0
   13.0537    9.9821   20.5781 C   0  0  0  0  0  0  0  0  0  0  0  0
   10.3850    4.6575   23.2386 O   0  0  0  0  0  0  0  0  0  0  0  0
    4.2069    6.8450   20.7994 C   0  0  0  0  0  0  0  0  0  0  0  0
    3.0726   10.1043   19.8522 O   0  0  0  0  0  0  0  0  0  0  0  0
    5.5057    7.1196   21.1155 C   0  0  0  0  0  0  0  0  0  0  0  0
    7.0367   11.0229   21.9948 O   0  0  0  0  0  0  0  0  0  0  0  0
  1  8  4  0
  1 12  4  0
  2  9  1  0
  2 11  4  0
  2 25  4  0
  3 12  4  0
  3 14  1  0
  3 23  4  0
  4 13  4  0
  4 21  4  0
  4 24  1  0
  5  8  4  0
  5 23  4  0
  6 18  2  0
  7 15  4  0
  7 16  1  0
  7 27  4  0
  8 18  1  0
 10 18  1  0
 10 20  1  0
 11 15  4  0
 11 26  1  0
 13 22  4  0
 16 19  1  0
 16 20  2  0
 17 19  4  0
 17 21  4  0
 19 22  4  0
 20 28  1  0
 25 27  4  0
M  END
$$$$

 Created by Python create_sdf_string function

 28 30  0  0  0  0  0  0  0  0999 V2000
   11.4592   11.2893   18.7941 C   0  0  0  0  0  0  0  0  0  0  0  0
    3.4202    7.9009   20.3866 C   0  0  0  0  0  0  0  0  0  0  0  0
   13.5280   10.3522   19.3586 C   0  0  0  0  0  0  0  0  0  0  0  0
    9.6923    5.6468   22.7891 C   0  0  0  0  0  0  0  0  0  0  0  0
   11.7756   10.2554   20.8841 N   0  0  0  0  0  0  0  0  0  0  0  0
    8.9876   11.9370   19.8757 O   0  0  0  0  0  0  0  0  0  0  0  0
    6.0167    8.4478   21.1089 C   0  0  0  0  0  0  0  0  0  0  0  0
   11.0002   10.8890   20.0262 C   0  0  0  0  0  0  0  0  0  0  0  0
    2.1721    7.7393   20.0315 O   0  0  0  0  0  0  0  0  0  0  0  0
    9.1107   10.3880   21.3769 N   0  0  0  0  0  0  0  0  0  0  0  0
    3.9102    9.2008   20.3124 C   0  0  0  0  0  0  0  0  0  0  0  0
   12.7292   10.9960   18.4597 C   0  0  0  0  0  0  0  0  0  0  0  0
    9.3798    6.6793   23.6625 C   0  0  0  0  0  0  0  0  0  0  0  0
   14.7425   10.0739   19.0802 O   0  0  0  0  0  0  0  0  0  0  0  0
    5.1894    9.4673   20.7118 C   0  0  0  0  0  0  0  0  0  0  0  0
    7.3773    8.8224   21.4870 C   0  0  0  0  0  0  0  0  0  0  0  0
    8.4391    6.6439   21.0235 C   0  0  0  0  0  0  0  0  0  0  0  0
    9.6494   11.1353   20.4167 C   0  0  0  0  0  0  0  0  0  0  0  0
    8.1431    7.6829   21.9046 C   0  0  0  0  0  0  0  0  0  0  0  0
    7.7796   10.1314   21.5115 N   0  0  0  0  0  0  0  0  0  0  0  0
    9.2768    5.6183   21.4437 C   0  0  0  0  0  0  0  0  0  0  0  0
    8.6315    7.7322   23.1768 C   0  0  0  0  0  0  0  0  0  0  0  0
   13.0537    9.9821   20.5781 C   0  0  0  0  0  0  0  0  0  0  0  0
   10.3850    4.6575   23.2386 O   0  0  0  0  0  0  0  0  0  0  0  0
    4.2069    6.8450   20.7994 C   0  0  0  0  0  0  0  0  0  0  0  0
    3.0726   10.1043   19.8522 O   0  0  0  0  0  0  0  0  0  0  0  0
    5.5057    7.1196   21.1155 C   0  0  0  0  0  0  0  0  0  0  0  0
    7.0367   11.0229   21.9948 O   0  0  0  0  0  0  0  0  0  0  0  0
  1  8  4  0
  1 12  4  0
  2  9  1  0
  2 11  4  0
  2 25  4  0
  3 12  4  0
  3 14  1  0
  3 23  4  0
  4 13  4  0
  4 21  4  0
  4 24  1  0
  5  8  4  0
  5 23  4  0
  6 18  2  0
  7 15  4  0
  7 16  1  0
  7 27  4  0
  8 18  1  0
 10 18  1  0
 10 20  1  0
 11 15  4  0
 11 26  1  0
 13 22  4  0
 16 19  1  0
 16 20  2  0
 17 19  4  0
 17 21  4  0
 19 22  4  0
 20 28  1  0
 25 27  4  0
M  END
$$$$

 Created by Python create_sdf_string function

 28 30  0  0  0  0  0  0  0  0999 V2000
   11.4592   11.2893   18.7941 C   0  0  0  0  0  0  0  0  0  0  0  0
    3.4202    7.9009   20.3866 C   0  0  0  0  0  0  0  0  0  0  0  0
   13.5280   10.3522   19.3586 C   0  0  0  0  0  0  0  0  0  0  0  0
    9.6923    5.6468   22.7891 C   0  0  0  0  0  0  0  0  0  0  0  0
   11.7756   10.2554   20.8841 N   0  0  0  0  0  0  0  0  0  0  0  0
    8.9876   11.9370   19.8757 O   0  0  0  0  0  0  0  0  0  0  0  0
    6.0167    8.4478   21.1089 C   0  0  0  0  0  0  0  0  0  0  0  0
   11.0002   10.8890   20.0262 C   0  0  0  0  0  0  0  0  0  0  0  0
    2.1721    7.7393   20.0315 O   0  0  0  0  0  0  0  0  0  0  0  0
    9.1107   10.3880   21.3769 N   0  0  0  0  0  0  0  0  0  0  0  0
    3.9102    9.2008   20.3124 C   0  0  0  0  0  0  0  0  0  0  0  0
   12.7292   10.9960   18.4597 C   0  0  0  0  0  0  0  0  0  0  0  0
    9.3798    6.6793   23.6625 C   0  0  0  0  0  0  0  0  0  0  0  0
   14.7425   10.0739   19.0802 O   0  0  0  0  0  0  0  0  0  0  0  0
    5.1894    9.4673   20.7118 C   0  0  0  0  0  0  0  0  0  0  0  0
    7.3773    8.8224   21.4870 C   0  0  0  0  0  0  0  0  0  0  0  0
    8.4391    6.6439   21.0235 C   0  0  0  0  0  0  0  0  0  0  0  0
    9.6494   11.1353   20.4167 C   0  0  0  0  0  0  0  0  0  0  0  0
    8.1431    7.6829   21.9046 C   0  0  0  0  0  0  0  0  0  0  0  0
    7.7796   10.1314   21.5115 N   0  0  0  0  0  0  0  0  0  0  0  0
    9.2768    5.6183   21.4437 C   0  0  0  0  0  0  0  0  0  0  0  0
    8.6315    7.7322   23.1768 C   0  0  0  0  0  0  0  0  0  0  0  0
   13.0537    9.9821   20.5781 C   0  0  0  0  0  0  0  0  0  0  0  0
   10.3850    4.6575   23.2386 O   0  0  0  0  0  0  0  0  0  0  0  0
    4.2069    6.8450   20.7994 C   0  0  0  0  0  0  0  0  0  0  0  0
    3.0726   10.1043   19.8522 O   0  0  0  0  0  0  0  0  0  0  0  0
    5.5057    7.1196   21.1155 C   0  0  0  0  0  0  0  0  0  0  0  0
    7.0367   11.0229   21.9948 O   0  0  0  0  0  0  0  0  0  0  0  0
  1  8  4  0
  1 12  4  0
  2  9  1  0
  2 11  4  0
  2 25  4  0
  3 12  4  0
  3 14  1  0
  3 23  4  0
  4 13  4  0
  4 21  4  0
  4 24  1  0
  5  8  4  0
  5 23  4  0
  6 18  2  0
  7 15  4  0
  7 16  1  0
  7 27  4  0
  8 18  1  0
 10 18  1  0
 10 20  1  0
 11 15  4  0
 11 26  1  0
 13 22  4  0
 16 19  1  0
 16 20  2  0
 17 19  4  0
 17 21  4  0
 19 22  4  0
 20 28  1  0
 25 27  4  0
M  END
$$$$

 Created by Python create_sdf_string function

 28 30  0  0  0  0  0  0  0  0999 V2000
   11.4592   11.2893   18.7941 C   0  0  0  0  0  0  0  0  0  0  0  0
    3.4202    7.9009   20.3866 C   0  0  0  0  0  0  0  0  0  0  0  0
   13.5280   10.3522   19.3586 C   0  0  0  0  0  0  0  0  0  0  0  0
    9.6923    5.6468   22.7891 C   0  0  0  0  0  0  0  0  0  0  0  0
   11.7756   10.2554   20.8841 N   0  0  0  0  0  0  0  0  0  0  0  0
    8.9876   11.9370   19.8757 O   0  0  0  0  0  0  0  0  0  0  0  0
    6.0167    8.4478   21.1089 C   0  0  0  0  0  0  0  0  0  0  0  0
   11.0002   10.8890   20.0262 C   0  0  0  0  0  0  0  0  0  0  0  0
    2.1721    7.7393   20.0315 O   0  0  0  0  0  0  0  0  0  0  0  0
    9.1107   10.3880   21.3769 N   0  0  0  0  0  0  0  0  0  0  0  0
    3.9102    9.2008   20.3124 C   0  0  0  0  0  0  0  0  0  0  0  0
   12.7292   10.9960   18.4597 C   0  0  0  0  0  0  0  0  0  0  0  0
    9.3798    6.6793   23.6625 C   0  0  0  0  0  0  0  0  0  0  0  0
   14.7425   10.0739   19.0802 O   0  0  0  0  0  0  0  0  0  0  0  0
    5.1894    9.4673   20.7118 C   0  0  0  0  0  0  0  0  0  0  0  0
    7.3773    8.8224   21.4870 C   0  0  0  0  0  0  0  0  0  0  0  0
    8.4391    6.6439   21.0235 C   0  0  0  0  0  0  0  0  0  0  0  0
    9.6494   11.1353   20.4167 C   0  0  0  0  0  0  0  0  0  0  0  0
    8.1431    7.6829   21.9046 C   0  0  0  0  0  0  0  0  0  0  0  0
    7.7796   10.1314   21.5115 N   0  0  0  0  0  0  0  0  0  0  0  0
    9.2768    5.6183   21.4437 C   0  0  0  0  0  0  0  0  0  0  0  0
    8.6315    7.7322   23.1768 C   0  0  0  0  0  0  0  0  0  0  0  0
   13.0537    9.9821   20.5781 C   0  0  0  0  0  0  0  0  0  0  0  0
   10.3850    4.6575   23.2386 O   0  0  0  0  0  0  0  0  0  0  0  0
    4.2069    6.8450   20.7994 C   0  0  0  0  0  0  0  0  0  0  0  0
    3.0726   10.1043   19.8522 O   0  0  0  0  0  0  0  0  0  0  0  0
    5.5057    7.1196   21.1155 C   0  0  0  0  0  0  0  0  0  0  0  0
    7.0367   11.0229   21.9948 O   0  0  0  0  0  0  0  0  0  0  0  0
  1  8  4  0
  1 12  4  0
  2  9  1  0
  2 11  4  0
  2 25  4  0
  3 12  4  0
  3 14  1  0
  3 23  4  0
  4 13  4  0
  4 21  4  0
  4 24  1  0
  5  8  4  0
  5 23  4  0
  6 18  2  0
  7 15  4  0
  7 16  1  0
  7 27  4  0
  8 18  1  0
 10 18  1  0
 10 20  1  0
 11 15  4  0
 11 26  1  0
 13 22  4  0
 16 19  1  0
 16 20  2  0
 17 19  4  0
 17 21  4  0
 19 22  4  0
 20 28  1  0
 25 27  4  0
M  END
$$$$

 Created by Python create_sdf_string function

 28 30  0  0  0  0  0  0  0  0999 V2000
   11.4592   11.2893   18.7941 C   0  0  0  0  0  0  0  0  0  0  0  0
    3.4202    7.9009   20.3866 C   0  0  0  0  0  0  0  0  0  0  0  0
   13.5280   10.3522   19.3586 C   0  0  0  0  0  0  0  0  0  0  0  0
    9.6923    5.6468   22.7891 C   0  0  0  0  0  0  0  0  0  0  0  0
   11.7756   10.2554   20.8841 N   0  0  0  0  0  0  0  0  0  0  0  0
    8.9876   11.9370   19.8757 O   0  0  0  0  0  0  0  0  0  0  0  0
    6.0167    8.4478   21.1089 C   0  0  0  0  0  0  0  0  0  0  0  0
   11.0002   10.8890   20.0262 C   0  0  0  0  0  0  0  0  0  0  0  0
    2.1721    7.7393   20.0315 O   0  0  0  0  0  0  0  0  0  0  0  0
    9.1107   10.3880   21.3769 N   0  0  0  0  0  0  0  0  0  0  0  0
    3.9102    9.2008   20.3124 C   0  0  0  0  0  0  0  0  0  0  0  0
   12.7292   10.9960   18.4597 C   0  0  0  0  0  0  0  0  0  0  0  0
    9.3798    6.6793   23.6625 C   0  0  0  0  0  0  0  0  0  0  0  0
   14.7425   10.0739   19.0802 O   0  0  0  0  0  0  0  0  0  0  0  0
    5.1894    9.4673   20.7118 C   0  0  0  0  0  0  0  0  0  0  0  0
    7.3773    8.8224   21.4870 C   0  0  0  0  0  0  0  0  0  0  0  0
    8.4391    6.6439   21.0235 C   0  0  0  0  0  0  0  0  0  0  0  0
    9.6494   11.1353   20.4167 C   0  0  0  0  0  0  0  0  0  0  0  0
    8.1431    7.6829   21.9046 C   0  0  0  0  0  0  0  0  0  0  0  0
    7.7796   10.1314   21.5115 N   0  0  0  0  0  0  0  0  0  0  0  0
    9.2768    5.6183   21.4437 C   0  0  0  0  0  0  0  0  0  0  0  0
    8.6315    7.7322   23.1768 C   0  0  0  0  0  0  0  0  0  0  0  0
   13.0537    9.9821   20.5781 C   0  0  0  0  0  0  0  0  0  0  0  0
   10.3850    4.6575   23.2386 O   0  0  0  0  0  0  0  0  0  0  0  0
    4.2069    6.8450   20.7994 C   0  0  0  0  0  0  0  0  0  0  0  0
    3.0726   10.1043   19.8522 O   0  0  0  0  0  0  0  0  0  0  0  0
    5.5057    7.1196   21.1155 C   0  0  0  0  0  0  0  0  0  0  0  0
    7.0367   11.0229   21.9948 O   0  0  0  0  0  0  0  0  0  0  0  0
  1  8  4  0
  1 12  4  0
  2  9  1  0
  2 11  4  0
  2 25  4  0
  3 12  4  0
  3 14  1  0
  3 23  4  0
  4 13  4  0
  4 21  4  0
  4 24  1  0
  5  8  4  0
  5 23  4  0
  6 18  2  0
  7 15  4  0
  7 16  1  0
  7 27  4  0
  8 18  1  0
 10 18  1  0
 10 20  1  0
 11 15  4  0
 11 26  1  0
 13 22  4  0
 16 19  1  0
 16 20  2  0
 17 19  4  0
 17 21  4  0
 19 22  4  0
 20 28  1  0
 25 27  4  0
M  END
$$$$

 Created by Python create_sdf_string function

 28 30  0  0  0  0  0  0  0  0999 V2000
   11.4592   11.2893   18.7941 C   0  0  0  0  0  0  0  0  0  0  0  0
    3.4202    7.9009   20.3866 C   0  0  0  0  0  0  0  0  0  0  0  0
   13.5280   10.3522   19.3586 C   0  0  0  0  0  0  0  0  0  0  0  0
    9.6923    5.6468   22.7891 C   0  0  0  0  0  0  0  0  0  0  0  0
   11.7756   10.2554   20.8841 N   0  0  0  0  0  0  0  0  0  0  0  0
    8.9876   11.9370   19.8757 O   0  0  0  0  0  0  0  0  0  0  0  0
    6.0167    8.4478   21.1089 C   0  0  0  0  0  0  0  0  0  0  0  0
   11.0002   10.8890   20.0262 C   0  0  0  0  0  0  0  0  0  0  0  0
    2.1721    7.7393   20.0315 O   0  0  0  0  0  0  0  0  0  0  0  0
    9.1107   10.3880   21.3769 N   0  0  0  0  0  0  0  0  0  0  0  0
    3.9102    9.2008   20.3124 C   0  0  0  0  0  0  0  0  0  0  0  0
   12.7292   10.9960   18.4597 C   0  0  0  0  0  0  0  0  0  0  0  0
    9.3798    6.6793   23.6625 C   0  0  0  0  0  0  0  0  0  0  0  0
   14.7425   10.0739   19.0802 O   0  0  0  0  0  0  0  0  0  0  0  0
    5.1894    9.4673   20.7118 C   0  0  0  0  0  0  0  0  0  0  0  0
    7.3773    8.8224   21.4870 C   0  0  0  0  0  0  0  0  0  0  0  0
    8.4391    6.6439   21.0235 C   0  0  0  0  0  0  0  0  0  0  0  0
    9.6494   11.1353   20.4167 C   0  0  0  0  0  0  0  0  0  0  0  0
    8.1431    7.6829   21.9046 C   0  0  0  0  0  0  0  0  0  0  0  0
    7.7796   10.1314   21.5115 N   0  0  0  0  0  0  0  0  0  0  0  0
    9.2768    5.6183   21.4437 C   0  0  0  0  0  0  0  0  0  0  0  0
    8.6315    7.7322   23.1768 C   0  0  0  0  0  0  0  0  0  0  0  0
   13.0537    9.9821   20.5781 C   0  0  0  0  0  0  0  0  0  0  0  0
   10.3850    4.6575   23.2386 O   0  0  0  0  0  0  0  0  0  0  0  0
    4.2069    6.8450   20.7994 C   0  0  0  0  0  0  0  0  0  0  0  0
    3.0726   10.1043   19.8522 O   0  0  0  0  0  0  0  0  0  0  0  0
    5.5057    7.1196   21.1155 C   0  0  0  0  0  0  0  0  0  0  0  0
    7.0367   11.0229   21.9948 O   0  0  0  0  0  0  0  0  0  0  0  0
  1  8  4  0
  1 12  4  0
  2  9  1  0
  2 11  4  0
  2 25  4  0
  3 12  4  0
  3 14  1  0
  3 23  4  0
  4 13  4  0
  4 21  4  0
  4 24  1  0
  5  8  4  0
  5 23  4  0
  6 18  2  0
  7 15  4  0
  7 16  1  0
  7 27  4  0
  8 18  1  0
 10 18  1  0
 10 20  1  0
 11 15  4  0
 11 26  1  0
 13 22  4  0
 16 19  1  0
 16 20  2  0
 17 19  4  0
 17 21  4  0
 19 22  4  0
 20 28  1  0
 25 27  4  0
M  END
$$$$

 Created by Python create_sdf_string function

 28 30  0  0  0  0  0  0  0  0999 V2000
   11.4592   11.2893   18.7941 C   0  0  0  0  0  0  0  0  0  0  0  0
    3.4202    7.9009   20.3866 C   0  0  0  0  0  0  0  0  0  0  0  0
   13.5280   10.3522   19.3586 C   0  0  0  0  0  0  0  0  0  0  0  0
    9.6923    5.6468   22.7891 C   0  0  0  0  0  0  0  0  0  0  0  0
   11.7756   10.2554   20.8841 N   0  0  0  0  0  0  0  0  0  0  0  0
    8.9876   11.9370   19.8757 O   0  0  0  0  0  0  0  0  0  0  0  0
    6.0167    8.4478   21.1089 C   0  0  0  0  0  0  0  0  0  0  0  0
   11.0002   10.8890   20.0262 C   0  0  0  0  0  0  0  0  0  0  0  0
    2.1721    7.7393   20.0315 O   0  0  0  0  0  0  0  0  0  0  0  0
    9.1107   10.3880   21.3769 N   0  0  0  0  0  0  0  0  0  0  0  0
    3.9102    9.2008   20.3124 C   0  0  0  0  0  0  0  0  0  0  0  0
   12.7292   10.9960   18.4597 C   0  0  0  0  0  0  0  0  0  0  0  0
    9.3798    6.6793   23.6625 C   0  0  0  0  0  0  0  0  0  0  0  0
   14.7425   10.0739   19.0802 O   0  0  0  0  0  0  0  0  0  0  0  0
    5.1894    9.4673   20.7118 C   0  0  0  0  0  0  0  0  0  0  0  0
    7.3773    8.8224   21.4870 C   0  0  0  0  0  0  0  0  0  0  0  0
    8.4391    6.6439   21.0235 C   0  0  0  0  0  0  0  0  0  0  0  0
    9.6494   11.1353   20.4167 C   0  0  0  0  0  0  0  0  0  0  0  0
    8.1431    7.6829   21.9046 C   0  0  0  0  0  0  0  0  0  0  0  0
    7.7796   10.1314   21.5115 N   0  0  0  0  0  0  0  0  0  0  0  0
    9.2768    5.6183   21.4437 C   0  0  0  0  0  0  0  0  0  0  0  0
    8.6315    7.7322   23.1768 C   0  0  0  0  0  0  0  0  0  0  0  0
   13.0537    9.9821   20.5781 C   0  0  0  0  0  0  0  0  0  0  0  0
   10.3850    4.6575   23.2386 O   0  0  0  0  0  0  0  0  0  0  0  0
    4.2069    6.8450   20.7994 C   0  0  0  0  0  0  0  0  0  0  0  0
    3.0726   10.1043   19.8522 O   0  0  0  0  0  0  0  0  0  0  0  0
    5.5057    7.1196   21.1155 C   0  0  0  0  0  0  0  0  0  0  0  0
    7.0367   11.0229   21.9948 O   0  0  0  0  0  0  0  0  0  0  0  0
  1  8  4  0
  1 12  4  0
  2  9  1  0
  2 11  4  0
  2 25  4  0
  3 12  4  0
  3 14  1  0
  3 23  4  0
  4 13  4  0
  4 21  4  0
  4 24  1  0
  5  8  4  0
  5 23  4  0
  6 18  2  0
  7 15  4  0
  7 16  1  0
  7 27  4  0
  8 18  1  0
 10 18  1  0
 10 20  1  0
 11 15  4  0
 11 26  1  0
 13 22  4  0
 16 19  1  0
 16 20  2  0
 17 19  4  0
 17 21  4  0
 19 22  4  0
 20 28  1  0
 25 27  4  0
M  END
$$$$

 Created by Python create_sdf_string function

 28 30  0  0  0  0  0  0  0  0999 V2000
   11.4592   11.2893   18.7941 C   0  0  0  0  0  0  0  0  0  0  0  0
    3.4202    7.9009   20.3866 C   0  0  0  0  0  0  0  0  0  0  0  0
   13.5280   10.3522   19.3586 C   0  0  0  0  0  0  0  0  0  0  0  0
    9.6923    5.6468   22.7891 C   0  0  0  0  0  0  0  0  0  0  0  0
   11.7756   10.2554   20.8841 N   0  0  0  0  0  0  0  0  0  0  0  0
    8.9876   11.9370   19.8757 O   0  0  0  0  0  0  0  0  0  0  0  0
    6.0167    8.4478   21.1089 C   0  0  0  0  0  0  0  0  0  0  0  0
   11.0002   10.8890   20.0262 C   0  0  0  0  0  0  0  0  0  0  0  0
    2.1721    7.7393   20.0315 O   0  0  0  0  0  0  0  0  0  0  0  0
    9.1107   10.3880   21.3769 N   0  0  0  0  0  0  0  0  0  0  0  0
    3.9102    9.2008   20.3124 C   0  0  0  0  0  0  0  0  0  0  0  0
   12.7292   10.9960   18.4597 C   0  0  0  0  0  0  0  0  0  0  0  0
    9.3798    6.6793   23.6625 C   0  0  0  0  0  0  0  0  0  0  0  0
   14.7425   10.0739   19.0802 O   0  0  0  0  0  0  0  0  0  0  0  0
    5.1894    9.4673   20.7118 C   0  0  0  0  0  0  0  0  0  0  0  0
    7.3773    8.8224   21.4870 C   0  0  0  0  0  0  0  0  0  0  0  0
    8.4391    6.6439   21.0235 C   0  0  0  0  0  0  0  0  0  0  0  0
    9.6494   11.1353   20.4167 C   0  0  0  0  0  0  0  0  0  0  0  0
    8.1431    7.6829   21.9046 C   0  0  0  0  0  0  0  0  0  0  0  0
    7.7796   10.1314   21.5115 N   0  0  0  0  0  0  0  0  0  0  0  0
    9.2768    5.6183   21.4437 C   0  0  0  0  0  0  0  0  0  0  0  0
    8.6315    7.7322   23.1768 C   0  0  0  0  0  0  0  0  0  0  0  0
   13.0537    9.9821   20.5781 C   0  0  0  0  0  0  0  0  0  0  0  0
   10.3850    4.6575   23.2386 O   0  0  0  0  0  0  0  0  0  0  0  0
    4.2069    6.8450   20.7994 C   0  0  0  0  0  0  0  0  0  0  0  0
    3.0726   10.1043   19.8522 O   0  0  0  0  0  0  0  0  0  0  0  0
    5.5057    7.1196   21.1155 C   0  0  0  0  0  0  0  0  0  0  0  0
    7.0367   11.0229   21.9948 O   0  0  0  0  0  0  0  0  0  0  0  0
  1  8  4  0
  1 12  4  0
  2  9  1  0
  2 11  4  0
  2 25  4  0
  3 12  4  0
  3 14  1  0
  3 23  4  0
  4 13  4  0
  4 21  4  0
  4 24  1  0
  5  8  4  0
  5 23  4  0
  6 18  2  0
  7 15  4  0
  7 16  1  0
  7 27  4  0
  8 18  1  0
 10 18  1  0
 10 20  1  0
 11 15  4  0
 11 26  1  0
 13 22  4  0
 16 19  1  0
 16 20  2  0
 17 19  4  0
 17 21  4  0
 19 22  4  0
 20 28  1  0
 25 27  4  0
M  END
$$$$

 Created by Python create_sdf_string function

 28 30  0  0  0  0  0  0  0  0999 V2000
   11.4592   11.2893   18.7941 C   0  0  0  0  0  0  0  0  0  0  0  0
    3.4202    7.9009   20.3866 C   0  0  0  0  0  0  0  0  0  0  0  0
   13.5280   10.3522   19.3586 C   0  0  0  0  0  0  0  0  0  0  0  0
    9.6923    5.6468   22.7891 C   0  0  0  0  0  0  0  0  0  0  0  0
   11.7756   10.2554   20.8841 N   0  0  0  0  0  0  0  0  0  0  0  0
    8.9876   11.9370   19.8757 O   0  0  0  0  0  0  0  0  0  0  0  0
    6.0167    8.4478   21.1089 C   0  0  0  0  0  0  0  0  0  0  0  0
   11.0002   10.8890   20.0262 C   0  0  0  0  0  0  0  0  0  0  0  0
    2.1721    7.7393   20.0315 O   0  0  0  0  0  0  0  0  0  0  0  0
    9.1107   10.3880   21.3769 N   0  0  0  0  0  0  0  0  0  0  0  0
    3.9102    9.2008   20.3124 C   0  0  0  0  0  0  0  0  0  0  0  0
   12.7292   10.9960   18.4597 C   0  0  0  0  0  0  0  0  0  0  0  0
    9.3798    6.6793   23.6625 C   0  0  0  0  0  0  0  0  0  0  0  0
   14.7425   10.0739   19.0802 O   0  0  0  0  0  0  0  0  0  0  0  0
    5.1894    9.4673   20.7118 C   0  0  0  0  0  0  0  0  0  0  0  0
    7.3773    8.8224   21.4870 C   0  0  0  0  0  0  0  0  0  0  0  0
    8.4391    6.6439   21.0235 C   0  0  0  0  0  0  0  0  0  0  0  0
    9.6494   11.1353   20.4167 C   0  0  0  0  0  0  0  0  0  0  0  0
    8.1431    7.6829   21.9046 C   0  0  0  0  0  0  0  0  0  0  0  0
    7.7796   10.1314   21.5115 N   0  0  0  0  0  0  0  0  0  0  0  0
    9.2768    5.6183   21.4437 C   0  0  0  0  0  0  0  0  0  0  0  0
    8.6315    7.7322   23.1768 C   0  0  0  0  0  0  0  0  0  0  0  0
   13.0537    9.9821   20.5781 C   0  0  0  0  0  0  0  0  0  0  0  0
   10.3850    4.6575   23.2386 O   0  0  0  0  0  0  0  0  0  0  0  0
    4.2069    6.8450   20.7994 C   0  0  0  0  0  0  0  0  0  0  0  0
    3.0726   10.1043   19.8522 O   0  0  0  0  0  0  0  0  0  0  0  0
    5.5057    7.1196   21.1155 C   0  0  0  0  0  0  0  0  0  0  0  0
    7.0367   11.0229   21.9948 O   0  0  0  0  0  0  0  0  0  0  0  0
  1  8  4  0
  1 12  4  0
  2  9  1  0
  2 11  4  0
  2 25  4  0
  3 12  4  0
  3 14  1  0
  3 23  4  0
  4 13  4  0
  4 21  4  0
  4 24  1  0
  5  8  4  0
  5 23  4  0
  6 18  2  0
  7 15  4  0
  7 16  1  0
  7 27  4  0
  8 18  1  0
 10 18  1  0
 10 20  1  0
 11 15  4  0
 11 26  1  0
 13 22  4  0
 16 19  1  0
 16 20  2  0
 17 19  4  0
 17 21  4  0
 19 22  4  0
 20 28  1  0
 25 27  4  0
M  END
$$$$

 Created by Python create_sdf_string function

 28 30  0  0  0  0  0  0  0  0999 V2000
   11.4592   11.2893   18.7941 C   0  0  0  0  0  0  0  0  0  0  0  0
    3.4202    7.9009   20.3866 C   0  0  0  0  0  0  0  0  0  0  0  0
   13.5280   10.3522   19.3586 C   0  0  0  0  0  0  0  0  0  0  0  0
    9.6923    5.6468   22.7891 C   0  0  0  0  0  0  0  0  0  0  0  0
   11.7756   10.2554   20.8841 N   0  0  0  0  0  0  0  0  0  0  0  0
    8.9876   11.9370   19.8757 O   0  0  0  0  0  0  0  0  0  0  0  0
    6.0167    8.4478   21.1089 C   0  0  0  0  0  0  0  0  0  0  0  0
   11.0002   10.8890   20.0262 C   0  0  0  0  0  0  0  0  0  0  0  0
    2.1721    7.7393   20.0315 O   0  0  0  0  0  0  0  0  0  0  0  0
    9.1107   10.3880   21.3769 N   0  0  0  0  0  0  0  0  0  0  0  0
    3.9102    9.2008   20.3124 C   0  0  0  0  0  0  0  0  0  0  0  0
   12.7292   10.9960   18.4597 C   0  0  0  0  0  0  0  0  0  0  0  0
    9.3798    6.6793   23.6625 C   0  0  0  0  0  0  0  0  0  0  0  0
   14.7425   10.0739   19.0802 O   0  0  0  0  0  0  0  0  0  0  0  0
    5.1894    9.4673   20.7118 C   0  0  0  0  0  0  0  0  0  0  0  0
    7.3773    8.8224   21.4870 C   0  0  0  0  0  0  0  0  0  0  0  0
    8.4391    6.6439   21.0235 C   0  0  0  0  0  0  0  0  0  0  0  0
    9.6494   11.1353   20.4167 C   0  0  0  0  0  0  0  0  0  0  0  0
    8.1431    7.6829   21.9046 C   0  0  0  0  0  0  0  0  0  0  0  0
    7.7796   10.1314   21.5115 N   0  0  0  0  0  0  0  0  0  0  0  0
    9.2768    5.6183   21.4437 C   0  0  0  0  0  0  0  0  0  0  0  0
    8.6315    7.7322   23.1768 C   0  0  0  0  0  0  0  0  0  0  0  0
   13.0537    9.9821   20.5781 C   0  0  0  0  0  0  0  0  0  0  0  0
   10.3850    4.6575   23.2386 O   0  0  0  0  0  0  0  0  0  0  0  0
    4.2069    6.8450   20.7994 C   0  0  0  0  0  0  0  0  0  0  0  0
    3.0726   10.1043   19.8522 O   0  0  0  0  0  0  0  0  0  0  0  0
    5.5057    7.1196   21.1155 C   0  0  0  0  0  0  0  0  0  0  0  0
    7.0367   11.0229   21.9948 O   0  0  0  0  0  0  0  0  0  0  0  0
  1  8  4  0
  1 12  4  0
  2  9  1  0
  2 11  4  0
  2 25  4  0
  3 12  4  0
  3 14  1  0
  3 23  4  0
  4 13  4  0
  4 21  4  0
  4 24  1  0
  5  8  4  0
  5 23  4  0
  6 18  2  0
  7 15  4  0
  7 16  1  0
  7 27  4  0
  8 18  1  0
 10 18  1  0
 10 20  1  0
 11 15  4  0
 11 26  1  0
 13 22  4  0
 16 19  1  0
 16 20  2  0
 17 19  4  0
 17 21  4  0
 19 22  4  0
 20 28  1  0
 25 27  4  0
M  END
$$$$

 Created by Python create_sdf_string function

 28 30  0  0  0  0  0  0  0  0999 V2000
   11.4592   11.2893   18.7941 C   0  0  0  0  0  0  0  0  0  0  0  0
    3.4202    7.9009   20.3866 C   0  0  0  0  0  0  0  0  0  0  0  0
   13.5280   10.3522   19.3586 C   0  0  0  0  0  0  0  0  0  0  0  0
    9.6923    5.6468   22.7891 C   0  0  0  0  0  0  0  0  0  0  0  0
   11.7756   10.2554   20.8841 N   0  0  0  0  0  0  0  0  0  0  0  0
    8.9876   11.9370   19.8757 O   0  0  0  0  0  0  0  0  0  0  0  0
    6.0167    8.4478   21.1089 C   0  0  0  0  0  0  0  0  0  0  0  0
   11.0002   10.8890   20.0262 C   0  0  0  0  0  0  0  0  0  0  0  0
    2.1721    7.7393   20.0315 O   0  0  0  0  0  0  0  0  0  0  0  0
    9.1107   10.3880   21.3769 N   0  0  0  0  0  0  0  0  0  0  0  0
    3.9102    9.2008   20.3124 C   0  0  0  0  0  0  0  0  0  0  0  0
   12.7292   10.9960   18.4597 C   0  0  0  0  0  0  0  0  0  0  0  0
    9.3798    6.6793   23.6625 C   0  0  0  0  0  0  0  0  0  0  0  0
   14.7425   10.0739   19.0802 O   0  0  0  0  0  0  0  0  0  0  0  0
    5.1894    9.4673   20.7118 C   0  0  0  0  0  0  0  0  0  0  0  0
    7.3773    8.8224   21.4870 C   0  0  0  0  0  0  0  0  0  0  0  0
    8.4391    6.6439   21.0235 C   0  0  0  0  0  0  0  0  0  0  0  0
    9.6494   11.1353   20.4167 C   0  0  0  0  0  0  0  0  0  0  0  0
    8.1431    7.6829   21.9046 C   0  0  0  0  0  0  0  0  0  0  0  0
    7.7796   10.1314   21.5115 N   0  0  0  0  0  0  0  0  0  0  0  0
    9.2768    5.6183   21.4437 C   0  0  0  0  0  0  0  0  0  0  0  0
    8.6315    7.7322   23.1768 C   0  0  0  0  0  0  0  0  0  0  0  0
   13.0537    9.9821   20.5781 C   0  0  0  0  0  0  0  0  0  0  0  0
   10.3850    4.6575   23.2386 O   0  0  0  0  0  0  0  0  0  0  0  0
    4.2069    6.8450   20.7994 C   0  0  0  0  0  0  0  0  0  0  0  0
    3.0726   10.1043   19.8522 O   0  0  0  0  0  0  0  0  0  0  0  0
    5.5057    7.1196   21.1155 C   0  0  0  0  0  0  0  0  0  0  0  0
    7.0367   11.0229   21.9948 O   0  0  0  0  0  0  0  0  0  0  0  0
  1  8  4  0
  1 12  4  0
  2  9  1  0
  2 11  4  0
  2 25  4  0
  3 12  4  0
  3 14  1  0
  3 23  4  0
  4 13  4  0
  4 21  4  0
  4 24  1  0
  5  8  4  0
  5 23  4  0
  6 18  2  0
  7 15  4  0
  7 16  1  0
  7 27  4  0
  8 18  1  0
 10 18  1  0
 10 20  1  0
 11 15  4  0
 11 26  1  0
 13 22  4  0
 16 19  1  0
 16 20  2  0
 17 19  4  0
 17 21  4  0
 19 22  4  0
 20 28  1  0
 25 27  4  0
M  END
$$$$

 Created by Python create_sdf_string function

 28 30  0  0  0  0  0  0  0  0999 V2000
   11.4592   11.2893   18.7941 C   0  0  0  0  0  0  0  0  0  0  0  0
    3.4202    7.9009   20.3866 C   0  0  0  0  0  0  0  0  0  0  0  0
   13.5280   10.3522   19.3586 C   0  0  0  0  0  0  0  0  0  0  0  0
    9.6923    5.6468   22.7891 C   0  0  0  0  0  0  0  0  0  0  0  0
   11.7756   10.2554   20.8841 N   0  0  0  0  0  0  0  0  0  0  0  0
    8.9876   11.9370   19.8757 O   0  0  0  0  0  0  0  0  0  0  0  0
    6.0167    8.4478   21.1089 C   0  0  0  0  0  0  0  0  0  0  0  0
   11.0002   10.8890   20.0262 C   0  0  0  0  0  0  0  0  0  0  0  0
    2.1721    7.7393   20.0315 O   0  0  0  0  0  0  0  0  0  0  0  0
    9.1107   10.3880   21.3769 N   0  0  0  0  0  0  0  0  0  0  0  0
    3.9102    9.2008   20.3124 C   0  0  0  0  0  0  0  0  0  0  0  0
   12.7292   10.9960   18.4597 C   0  0  0  0  0  0  0  0  0  0  0  0
    9.3798    6.6793   23.6625 C   0  0  0  0  0  0  0  0  0  0  0  0
   14.7425   10.0739   19.0802 O   0  0  0  0  0  0  0  0  0  0  0  0
    5.1894    9.4673   20.7118 C   0  0  0  0  0  0  0  0  0  0  0  0
    7.3773    8.8224   21.4870 C   0  0  0  0  0  0  0  0  0  0  0  0
    8.4391    6.6439   21.0235 C   0  0  0  0  0  0  0  0  0  0  0  0
    9.6494   11.1353   20.4167 C   0  0  0  0  0  0  0  0  0  0  0  0
    8.1431    7.6829   21.9046 C   0  0  0  0  0  0  0  0  0  0  0  0
    7.7796   10.1314   21.5115 N   0  0  0  0  0  0  0  0  0  0  0  0
    9.2768    5.6183   21.4437 C   0  0  0  0  0  0  0  0  0  0  0  0
    8.6315    7.7322   23.1768 C   0  0  0  0  0  0  0  0  0  0  0  0
   13.0537    9.9821   20.5781 C   0  0  0  0  0  0  0  0  0  0  0  0
   10.3850    4.6575   23.2386 O   0  0  0  0  0  0  0  0  0  0  0  0
    4.2069    6.8450   20.7994 C   0  0  0  0  0  0  0  0  0  0  0  0
    3.0726   10.1043   19.8522 O   0  0  0  0  0  0  0  0  0  0  0  0
    5.5057    7.1196   21.1155 C   0  0  0  0  0  0  0  0  0  0  0  0
    7.0367   11.0229   21.9948 O   0  0  0  0  0  0  0  0  0  0  0  0
  1  8  4  0
  1 12  4  0
  2  9  1  0
  2 11  4  0
  2 25  4  0
  3 12  4  0
  3 14  1  0
  3 23  4  0
  4 13  4  0
  4 21  4  0
  4 24  1  0
  5  8  4  0
  5 23  4  0
  6 18  2  0
  7 15  4  0
  7 16  1  0
  7 27  4  0
  8 18  1  0
 10 18  1  0
 10 20  1  0
 11 15  4  0
 11 26  1  0
 13 22  4  0
 16 19  1  0
 16 20  2  0
 17 19  4  0
 17 21  4  0
 19 22  4  0
 20 28  1  0
 25 27  4  0
M  END
$$$$

 Created by Python create_sdf_string function

 28 30  0  0  0  0  0  0  0  0999 V2000
   11.4592   11.2893   18.7941 C   0  0  0  0  0  0  0  0  0  0  0  0
    3.4202    7.9009   20.3866 C   0  0  0  0  0  0  0  0  0  0  0  0
   13.5280   10.3522   19.3586 C   0  0  0  0  0  0  0  0  0  0  0  0
    9.6923    5.6468   22.7891 C   0  0  0  0  0  0  0  0  0  0  0  0
   11.7756   10.2554   20.8841 N   0  0  0  0  0  0  0  0  0  0  0  0
    8.9876   11.9370   19.8757 O   0  0  0  0  0  0  0  0  0  0  0  0
    6.0167    8.4478   21.1089 C   0  0  0  0  0  0  0  0  0  0  0  0
   11.0002   10.8890   20.0262 C   0  0  0  0  0  0  0  0  0  0  0  0
    2.1721    7.7393   20.0315 O   0  0  0  0  0  0  0  0  0  0  0  0
    9.1107   10.3880   21.3769 N   0  0  0  0  0  0  0  0  0  0  0  0
    3.9102    9.2008   20.3124 C   0  0  0  0  0  0  0  0  0  0  0  0
   12.7292   10.9960   18.4597 C   0  0  0  0  0  0  0  0  0  0  0  0
    9.3798    6.6793   23.6625 C   0  0  0  0  0  0  0  0  0  0  0  0
   14.7425   10.0739   19.0802 O   0  0  0  0  0  0  0  0  0  0  0  0
    5.1894    9.4673   20.7118 C   0  0  0  0  0  0  0  0  0  0  0  0
    7.3773    8.8224   21.4870 C   0  0  0  0  0  0  0  0  0  0  0  0
    8.4391    6.6439   21.0235 C   0  0  0  0  0  0  0  0  0  0  0  0
    9.6494   11.1353   20.4167 C   0  0  0  0  0  0  0  0  0  0  0  0
    8.1431    7.6829   21.9046 C   0  0  0  0  0  0  0  0  0  0  0  0
    7.7796   10.1314   21.5115 N   0  0  0  0  0  0  0  0  0  0  0  0
    9.2768    5.6183   21.4437 C   0  0  0  0  0  0  0  0  0  0  0  0
    8.6315    7.7322   23.1768 C   0  0  0  0  0  0  0  0  0  0  0  0
   13.0537    9.9821   20.5781 C   0  0  0  0  0  0  0  0  0  0  0  0
   10.3850    4.6575   23.2386 O   0  0  0  0  0  0  0  0  0  0  0  0
    4.2069    6.8450   20.7994 C   0  0  0  0  0  0  0  0  0  0  0  0
    3.0726   10.1043   19.8522 O   0  0  0  0  0  0  0  0  0  0  0  0
    5.5057    7.1196   21.1155 C   0  0  0  0  0  0  0  0  0  0  0  0
    7.0367   11.0229   21.9948 O   0  0  0  0  0  0  0  0  0  0  0  0
  1  8  4  0
  1 12  4  0
  2  9  1  0
  2 11  4  0
  2 25  4  0
  3 12  4  0
  3 14  1  0
  3 23  4  0
  4 13  4  0
  4 21  4  0
  4 24  1  0
  5  8  4  0
  5 23  4  0
  6 18  2  0
  7 15  4  0
  7 16  1  0
  7 27  4  0
  8 18  1  0
 10 18  1  0
 10 20  1  0
 11 15  4  0
 11 26  1  0
 13 22  4  0
 16 19  1  0
 16 20  2  0
 17 19  4  0
 17 21  4  0
 19 22  4  0
 20 28  1  0
 25 27  4  0
M  END
$$$$

 Created by Python create_sdf_string function

 28 30  0  0  0  0  0  0  0  0999 V2000
   11.4592   11.2893   18.7941 C   0  0  0  0  0  0  0  0  0  0  0  0
    3.4202    7.9009   20.3866 C   0  0  0  0  0  0  0  0  0  0  0  0
   13.5280   10.3522   19.3586 C   0  0  0  0  0  0  0  0  0  0  0  0
    9.6923    5.6468   22.7891 C   0  0  0  0  0  0  0  0  0  0  0  0
   11.7756   10.2554   20.8841 N   0  0  0  0  0  0  0  0  0  0  0  0
    8.9876   11.9370   19.8757 O   0  0  0  0  0  0  0  0  0  0  0  0
    6.0167    8.4478   21.1089 C   0  0  0  0  0  0  0  0  0  0  0  0
   11.0002   10.8890   20.0262 C   0  0  0  0  0  0  0  0  0  0  0  0
    2.1721    7.7393   20.0315 O   0  0  0  0  0  0  0  0  0  0  0  0
    9.1107   10.3880   21.3769 N   0  0  0  0  0  0  0  0  0  0  0  0
    3.9102    9.2008   20.3124 C   0  0  0  0  0  0  0  0  0  0  0  0
   12.7292   10.9960   18.4597 C   0  0  0  0  0  0  0  0  0  0  0  0
    9.3798    6.6793   23.6625 C   0  0  0  0  0  0  0  0  0  0  0  0
   14.7425   10.0739   19.0802 O   0  0  0  0  0  0  0  0  0  0  0  0
    5.1894    9.4673   20.7118 C   0  0  0  0  0  0  0  0  0  0  0  0
    7.3773    8.8224   21.4870 C   0  0  0  0  0  0  0  0  0  0  0  0
    8.4391    6.6439   21.0235 C   0  0  0  0  0  0  0  0  0  0  0  0
    9.6494   11.1353   20.4167 C   0  0  0  0  0  0  0  0  0  0  0  0
    8.1431    7.6829   21.9046 C   0  0  0  0  0  0  0  0  0  0  0  0
    7.7796   10.1314   21.5115 N   0  0  0  0  0  0  0  0  0  0  0  0
    9.2768    5.6183   21.4437 C   0  0  0  0  0  0  0  0  0  0  0  0
    8.6315    7.7322   23.1768 C   0  0  0  0  0  0  0  0  0  0  0  0
   13.0537    9.9821   20.5781 C   0  0  0  0  0  0  0  0  0  0  0  0
   10.3850    4.6575   23.2386 O   0  0  0  0  0  0  0  0  0  0  0  0
    4.2069    6.8450   20.7994 C   0  0  0  0  0  0  0  0  0  0  0  0
    3.0726   10.1043   19.8522 O   0  0  0  0  0  0  0  0  0  0  0  0
    5.5057    7.1196   21.1155 C   0  0  0  0  0  0  0  0  0  0  0  0
    7.0367   11.0229   21.9948 O   0  0  0  0  0  0  0  0  0  0  0  0
  1  8  4  0
  1 12  4  0
  2  9  1  0
  2 11  4  0
  2 25  4  0
  3 12  4  0
  3 14  1  0
  3 23  4  0
  4 13  4  0
  4 21  4  0
  4 24  1  0
  5  8  4  0
  5 23  4  0
  6 18  2  0
  7 15  4  0
  7 16  1  0
  7 27  4  0
  8 18  1  0
 10 18  1  0
 10 20  1  0
 11 15  4  0
 11 26  1  0
 13 22  4  0
 16 19  1  0
 16 20  2  0
 17 19  4  0
 17 21  4  0
 19 22  4  0
 20 28  1  0
 25 27  4  0
M  END
$$$$

 Created by Python create_sdf_string function

 28 30  0  0  0  0  0  0  0  0999 V2000
   11.4592   11.2893   18.7941 C   0  0  0  0  0  0  0  0  0  0  0  0
    3.4202    7.9009   20.3866 C   0  0  0  0  0  0  0  0  0  0  0  0
   13.5280   10.3522   19.3586 C   0  0  0  0  0  0  0  0  0  0  0  0
    9.6923    5.6468   22.7891 C   0  0  0  0  0  0  0  0  0  0  0  0
   11.7756   10.2554   20.8841 N   0  0  0  0  0  0  0  0  0  0  0  0
    8.9876   11.9370   19.8757 O   0  0  0  0  0  0  0  0  0  0  0  0
    6.0167    8.4478   21.1089 C   0  0  0  0  0  0  0  0  0  0  0  0
   11.0002   10.8890   20.0262 C   0  0  0  0  0  0  0  0  0  0  0  0
    2.1721    7.7393   20.0315 O   0  0  0  0  0  0  0  0  0  0  0  0
    9.1107   10.3880   21.3769 N   0  0  0  0  0  0  0  0  0  0  0  0
    3.9102    9.2008   20.3124 C   0  0  0  0  0  0  0  0  0  0  0  0
   12.7292   10.9960   18.4597 C   0  0  0  0  0  0  0  0  0  0  0  0
    9.3798    6.6793   23.6625 C   0  0  0  0  0  0  0  0  0  0  0  0
   14.7425   10.0739   19.0802 O   0  0  0  0  0  0  0  0  0  0  0  0
    5.1894    9.4673   20.7118 C   0  0  0  0  0  0  0  0  0  0  0  0
    7.3773    8.8224   21.4870 C   0  0  0  0  0  0  0  0  0  0  0  0
    8.4391    6.6439   21.0235 C   0  0  0  0  0  0  0  0  0  0  0  0
    9.6494   11.1353   20.4167 C   0  0  0  0  0  0  0  0  0  0  0  0
    8.1431    7.6829   21.9046 C   0  0  0  0  0  0  0  0  0  0  0  0
    7.7796   10.1314   21.5115 N   0  0  0  0  0  0  0  0  0  0  0  0
    9.2768    5.6183   21.4437 C   0  0  0  0  0  0  0  0  0  0  0  0
    8.6315    7.7322   23.1768 C   0  0  0  0  0  0  0  0  0  0  0  0
   13.0537    9.9821   20.5781 C   0  0  0  0  0  0  0  0  0  0  0  0
   10.3850    4.6575   23.2386 O   0  0  0  0  0  0  0  0  0  0  0  0
    4.2069    6.8450   20.7994 C   0  0  0  0  0  0  0  0  0  0  0  0
    3.0726   10.1043   19.8522 O   0  0  0  0  0  0  0  0  0  0  0  0
    5.5057    7.1196   21.1155 C   0  0  0  0  0  0  0  0  0  0  0  0
    7.0367   11.0229   21.9948 O   0  0  0  0  0  0  0  0  0  0  0  0
  1  8  4  0
  1 12  4  0
  2  9  1  0
  2 11  4  0
  2 25  4  0
  3 12  4  0
  3 14  1  0
  3 23  4  0
  4 13  4  0
  4 21  4  0
  4 24  1  0
  5  8  4  0
  5 23  4  0
  6 18  2  0
  7 15  4  0
  7 16  1  0
  7 27  4  0
  8 18  1  0
 10 18  1  0
 10 20  1  0
 11 15  4  0
 11 26  1  0
 13 22  4  0
 16 19  1  0
 16 20  2  0
 17 19  4  0
 17 21  4  0
 19 22  4  0
 20 28  1  0
 25 27  4  0
M  END
$$$$

 Created by Python create_sdf_string function

 28 30  0  0  0  0  0  0  0  0999 V2000
   11.4592   11.2893   18.7941 C   0  0  0  0  0  0  0  0  0  0  0  0
    3.4202    7.9009   20.3866 C   0  0  0  0  0  0  0  0  0  0  0  0
   13.5280   10.3522   19.3586 C   0  0  0  0  0  0  0  0  0  0  0  0
    9.6923    5.6468   22.7891 C   0  0  0  0  0  0  0  0  0  0  0  0
   11.7756   10.2554   20.8841 N   0  0  0  0  0  0  0  0  0  0  0  0
    8.9876   11.9370   19.8757 O   0  0  0  0  0  0  0  0  0  0  0  0
    6.0167    8.4478   21.1089 C   0  0  0  0  0  0  0  0  0  0  0  0
   11.0002   10.8890   20.0262 C   0  0  0  0  0  0  0  0  0  0  0  0
    2.1721    7.7393   20.0315 O   0  0  0  0  0  0  0  0  0  0  0  0
    9.1107   10.3880   21.3769 N   0  0  0  0  0  0  0  0  0  0  0  0
    3.9102    9.2008   20.3124 C   0  0  0  0  0  0  0  0  0  0  0  0
   12.7292   10.9960   18.4597 C   0  0  0  0  0  0  0  0  0  0  0  0
    9.3798    6.6793   23.6625 C   0  0  0  0  0  0  0  0  0  0  0  0
   14.7425   10.0739   19.0802 O   0  0  0  0  0  0  0  0  0  0  0  0
    5.1894    9.4673   20.7118 C   0  0  0  0  0  0  0  0  0  0  0  0
    7.3773    8.8224   21.4870 C   0  0  0  0  0  0  0  0  0  0  0  0
    8.4391    6.6439   21.0235 C   0  0  0  0  0  0  0  0  0  0  0  0
    9.6494   11.1353   20.4167 C   0  0  0  0  0  0  0  0  0  0  0  0
    8.1431    7.6829   21.9046 C   0  0  0  0  0  0  0  0  0  0  0  0
    7.7796   10.1314   21.5115 N   0  0  0  0  0  0  0  0  0  0  0  0
    9.2768    5.6183   21.4437 C   0  0  0  0  0  0  0  0  0  0  0  0
    8.6315    7.7322   23.1768 C   0  0  0  0  0  0  0  0  0  0  0  0
   13.0537    9.9821   20.5781 C   0  0  0  0  0  0  0  0  0  0  0  0
   10.3850    4.6575   23.2386 O   0  0  0  0  0  0  0  0  0  0  0  0
    4.2069    6.8450   20.7994 C   0  0  0  0  0  0  0  0  0  0  0  0
    3.0726   10.1043   19.8522 O   0  0  0  0  0  0  0  0  0  0  0  0
    5.5057    7.1196   21.1155 C   0  0  0  0  0  0  0  0  0  0  0  0
    7.0367   11.0229   21.9948 O   0  0  0  0  0  0  0  0  0  0  0  0
  1  8  4  0
  1 12  4  0
  2  9  1  0
  2 11  4  0
  2 25  4  0
  3 12  4  0
  3 14  1  0
  3 23  4  0
  4 13  4  0
  4 21  4  0
  4 24  1  0
  5  8  4  0
  5 23  4  0
  6 18  2  0
  7 15  4  0
  7 16  1  0
  7 27  4  0
  8 18  1  0
 10 18  1  0
 10 20  1  0
 11 15  4  0
 11 26  1  0
 13 22  4  0
 16 19  1  0
 16 20  2  0
 17 19  4  0
 17 21  4  0
 19 22  4  0
 20 28  1  0
 25 27  4  0
M  END
$$$$

 Created by Python create_sdf_string function

 28 30  0  0  0  0  0  0  0  0999 V2000
   11.4592   11.2893   18.7941 C   0  0  0  0  0  0  0  0  0  0  0  0
    3.4202    7.9009   20.3866 C   0  0  0  0  0  0  0  0  0  0  0  0
   13.5280   10.3522   19.3586 C   0  0  0  0  0  0  0  0  0  0  0  0
    9.6923    5.6468   22.7891 C   0  0  0  0  0  0  0  0  0  0  0  0
   11.7756   10.2554   20.8841 N   0  0  0  0  0  0  0  0  0  0  0  0
    8.9876   11.9370   19.8757 O   0  0  0  0  0  0  0  0  0  0  0  0
    6.0167    8.4478   21.1089 C   0  0  0  0  0  0  0  0  0  0  0  0
   11.0002   10.8890   20.0262 C   0  0  0  0  0  0  0  0  0  0  0  0
    2.1721    7.7393   20.0315 O   0  0  0  0  0  0  0  0  0  0  0  0
    9.1107   10.3880   21.3769 N   0  0  0  0  0  0  0  0  0  0  0  0
    3.9102    9.2008   20.3124 C   0  0  0  0  0  0  0  0  0  0  0  0
   12.7292   10.9960   18.4597 C   0  0  0  0  0  0  0  0  0  0  0  0
    9.3798    6.6793   23.6625 C   0  0  0  0  0  0  0  0  0  0  0  0
   14.7425   10.0739   19.0802 O   0  0  0  0  0  0  0  0  0  0  0  0
    5.1894    9.4673   20.7118 C   0  0  0  0  0  0  0  0  0  0  0  0
    7.3773    8.8224   21.4870 C   0  0  0  0  0  0  0  0  0  0  0  0
    8.4391    6.6439   21.0235 C   0  0  0  0  0  0  0  0  0  0  0  0
    9.6494   11.1353   20.4167 C   0  0  0  0  0  0  0  0  0  0  0  0
    8.1431    7.6829   21.9046 C   0  0  0  0  0  0  0  0  0  0  0  0
    7.7796   10.1314   21.5115 N   0  0  0  0  0  0  0  0  0  0  0  0
    9.2768    5.6183   21.4437 C   0  0  0  0  0  0  0  0  0  0  0  0
    8.6315    7.7322   23.1768 C   0  0  0  0  0  0  0  0  0  0  0  0
   13.0537    9.9821   20.5781 C   0  0  0  0  0  0  0  0  0  0  0  0
   10.3850    4.6575   23.2386 O   0  0  0  0  0  0  0  0  0  0  0  0
    4.2069    6.8450   20.7994 C   0  0  0  0  0  0  0  0  0  0  0  0
    3.0726   10.1043   19.8522 O   0  0  0  0  0  0  0  0  0  0  0  0
    5.5057    7.1196   21.1155 C   0  0  0  0  0  0  0  0  0  0  0  0
    7.0367   11.0229   21.9948 O   0  0  0  0  0  0  0  0  0  0  0  0
  1  8  4  0
  1 12  4  0
  2  9  1  0
  2 11  4  0
  2 25  4  0
  3 12  4  0
  3 14  1  0
  3 23  4  0
  4 13  4  0
  4 21  4  0
  4 24  1  0
  5  8  4  0
  5 23  4  0
  6 18  2  0
  7 15  4  0
  7 16  1  0
  7 27  4  0
  8 18  1  0
 10 18  1  0
 10 20  1  0
 11 15  4  0
 11 26  1  0
 13 22  4  0
 16 19  1  0
 16 20  2  0
 17 19  4  0
 17 21  4  0
 19 22  4  0
 20 28  1  0
 25 27  4  0
M  END
$$$$

 Created by Python create_sdf_string function

 28 30  0  0  0  0  0  0  0  0999 V2000
   11.4592   11.2893   18.7941 C   0  0  0  0  0  0  0  0  0  0  0  0
    3.4202    7.9009   20.3866 C   0  0  0  0  0  0  0  0  0  0  0  0
   13.5280   10.3522   19.3586 C   0  0  0  0  0  0  0  0  0  0  0  0
    9.6923    5.6468   22.7891 C   0  0  0  0  0  0  0  0  0  0  0  0
   11.7756   10.2554   20.8841 N   0  0  0  0  0  0  0  0  0  0  0  0
    8.9876   11.9370   19.8757 O   0  0  0  0  0  0  0  0  0  0  0  0
    6.0167    8.4478   21.1089 C   0  0  0  0  0  0  0  0  0  0  0  0
   11.0002   10.8890   20.0262 C   0  0  0  0  0  0  0  0  0  0  0  0
    2.1721    7.7393   20.0315 O   0  0  0  0  0  0  0  0  0  0  0  0
    9.1107   10.3880   21.3769 N   0  0  0  0  0  0  0  0  0  0  0  0
    3.9102    9.2008   20.3124 C   0  0  0  0  0  0  0  0  0  0  0  0
   12.7292   10.9960   18.4597 C   0  0  0  0  0  0  0  0  0  0  0  0
    9.3798    6.6793   23.6625 C   0  0  0  0  0  0  0  0  0  0  0  0
   14.7425   10.0739   19.0802 O   0  0  0  0  0  0  0  0  0  0  0  0
    5.1894    9.4673   20.7118 C   0  0  0  0  0  0  0  0  0  0  0  0
    7.3773    8.8224   21.4870 C   0  0  0  0  0  0  0  0  0  0  0  0
    8.4391    6.6439   21.0235 C   0  0  0  0  0  0  0  0  0  0  0  0
    9.6494   11.1353   20.4167 C   0  0  0  0  0  0  0  0  0  0  0  0
    8.1431    7.6829   21.9046 C   0  0  0  0  0  0  0  0  0  0  0  0
    7.7796   10.1314   21.5115 N   0  0  0  0  0  0  0  0  0  0  0  0
    9.2768    5.6183   21.4437 C   0  0  0  0  0  0  0  0  0  0  0  0
    8.6315    7.7322   23.1768 C   0  0  0  0  0  0  0  0  0  0  0  0
   13.0537    9.9821   20.5781 C   0  0  0  0  0  0  0  0  0  0  0  0
   10.3850    4.6575   23.2386 O   0  0  0  0  0  0  0  0  0  0  0  0
    4.2069    6.8450   20.7994 C   0  0  0  0  0  0  0  0  0  0  0  0
    3.0726   10.1043   19.8522 O   0  0  0  0  0  0  0  0  0  0  0  0
    5.5057    7.1196   21.1155 C   0  0  0  0  0  0  0  0  0  0  0  0
    7.0367   11.0229   21.9948 O   0  0  0  0  0  0  0  0  0  0  0  0
  1  8  4  0
  1 12  4  0
  2  9  1  0
  2 11  4  0
  2 25  4  0
  3 12  4  0
  3 14  1  0
  3 23  4  0
  4 13  4  0
  4 21  4  0
  4 24  1  0
  5  8  4  0
  5 23  4  0
  6 18  2  0
  7 15  4  0
  7 16  1  0
  7 27  4  0
  8 18  1  0
 10 18  1  0
 10 20  1  0
 11 15  4  0
 11 26  1  0
 13 22  4  0
 16 19  1  0
 16 20  2  0
 17 19  4  0
 17 21  4  0
 19 22  4  0
 20 28  1  0
 25 27  4  0
M  END
$$$$

 Created by Python create_sdf_string function

 28 30  0  0  0  0  0  0  0  0999 V2000
   11.4592   11.2893   18.7941 C   0  0  0  0  0  0  0  0  0  0  0  0
    3.4202    7.9009   20.3866 C   0  0  0  0  0  0  0  0  0  0  0  0
   13.5280   10.3522   19.3586 C   0  0  0  0  0  0  0  0  0  0  0  0
    9.6923    5.6468   22.7891 C   0  0  0  0  0  0  0  0  0  0  0  0
   11.7756   10.2554   20.8841 N   0  0  0  0  0  0  0  0  0  0  0  0
    8.9876   11.9370   19.8757 O   0  0  0  0  0  0  0  0  0  0  0  0
    6.0167    8.4478   21.1089 C   0  0  0  0  0  0  0  0  0  0  0  0
   11.0002   10.8890   20.0262 C   0  0  0  0  0  0  0  0  0  0  0  0
    2.1721    7.7393   20.0315 O   0  0  0  0  0  0  0  0  0  0  0  0
    9.1107   10.3880   21.3769 N   0  0  0  0  0  0  0  0  0  0  0  0
    3.9102    9.2008   20.3124 C   0  0  0  0  0  0  0  0  0  0  0  0
   12.7292   10.9960   18.4597 C   0  0  0  0  0  0  0  0  0  0  0  0
    9.3798    6.6793   23.6625 C   0  0  0  0  0  0  0  0  0  0  0  0
   14.7425   10.0739   19.0802 O   0  0  0  0  0  0  0  0  0  0  0  0
    5.1894    9.4673   20.7118 C   0  0  0  0  0  0  0  0  0  0  0  0
    7.3773    8.8224   21.4870 C   0  0  0  0  0  0  0  0  0  0  0  0
    8.4391    6.6439   21.0235 C   0  0  0  0  0  0  0  0  0  0  0  0
    9.6494   11.1353   20.4167 C   0  0  0  0  0  0  0  0  0  0  0  0
    8.1431    7.6829   21.9046 C   0  0  0  0  0  0  0  0  0  0  0  0
    7.7796   10.1314   21.5115 N   0  0  0  0  0  0  0  0  0  0  0  0
    9.2768    5.6183   21.4437 C   0  0  0  0  0  0  0  0  0  0  0  0
    8.6315    7.7322   23.1768 C   0  0  0  0  0  0  0  0  0  0  0  0
   13.0537    9.9821   20.5781 C   0  0  0  0  0  0  0  0  0  0  0  0
   10.3850    4.6575   23.2386 O   0  0  0  0  0  0  0  0  0  0  0  0
    4.2069    6.8450   20.7994 C   0  0  0  0  0  0  0  0  0  0  0  0
    3.0726   10.1043   19.8522 O   0  0  0  0  0  0  0  0  0  0  0  0
    5.5057    7.1196   21.1155 C   0  0  0  0  0  0  0  0  0  0  0  0
    7.0367   11.0229   21.9948 O   0  0  0  0  0  0  0  0  0  0  0  0
  1  8  4  0
  1 12  4  0
  2  9  1  0
  2 11  4  0
  2 25  4  0
  3 12  4  0
  3 14  1  0
  3 23  4  0
  4 13  4  0
  4 21  4  0
  4 24  1  0
  5  8  4  0
  5 23  4  0
  6 18  2  0
  7 15  4  0
  7 16  1  0
  7 27  4  0
  8 18  1  0
 10 18  1  0
 10 20  1  0
 11 15  4  0
 11 26  1  0
 13 22  4  0
 16 19  1  0
 16 20  2  0
 17 19  4  0
 17 21  4  0
 19 22  4  0
 20 28  1  0
 25 27  4  0
M  END
$$$$

 Created by Python create_sdf_string function

 28 30  0  0  0  0  0  0  0  0999 V2000
   11.4592   11.2893   18.7941 C   0  0  0  0  0  0  0  0  0  0  0  0
    3.4202    7.9009   20.3866 C   0  0  0  0  0  0  0  0  0  0  0  0
   13.5280   10.3522   19.3586 C   0  0  0  0  0  0  0  0  0  0  0  0
    9.6923    5.6468   22.7891 C   0  0  0  0  0  0  0  0  0  0  0  0
   11.7756   10.2554   20.8841 N   0  0  0  0  0  0  0  0  0  0  0  0
    8.9876   11.9370   19.8757 O   0  0  0  0  0  0  0  0  0  0  0  0
    6.0167    8.4478   21.1089 C   0  0  0  0  0  0  0  0  0  0  0  0
   11.0002   10.8890   20.0262 C   0  0  0  0  0  0  0  0  0  0  0  0
    2.1721    7.7393   20.0315 O   0  0  0  0  0  0  0  0  0  0  0  0
    9.1107   10.3880   21.3769 N   0  0  0  0  0  0  0  0  0  0  0  0
    3.9102    9.2008   20.3124 C   0  0  0  0  0  0  0  0  0  0  0  0
   12.7292   10.9960   18.4597 C   0  0  0  0  0  0  0  0  0  0  0  0
    9.3798    6.6793   23.6625 C   0  0  0  0  0  0  0  0  0  0  0  0
   14.7425   10.0739   19.0802 O   0  0  0  0  0  0  0  0  0  0  0  0
    5.1894    9.4673   20.7118 C   0  0  0  0  0  0  0  0  0  0  0  0
    7.3773    8.8224   21.4870 C   0  0  0  0  0  0  0  0  0  0  0  0
    8.4391    6.6439   21.0235 C   0  0  0  0  0  0  0  0  0  0  0  0
    9.6494   11.1353   20.4167 C   0  0  0  0  0  0  0  0  0  0  0  0
    8.1431    7.6829   21.9046 C   0  0  0  0  0  0  0  0  0  0  0  0
    7.7796   10.1314   21.5115 N   0  0  0  0  0  0  0  0  0  0  0  0
    9.2768    5.6183   21.4437 C   0  0  0  0  0  0  0  0  0  0  0  0
    8.6315    7.7322   23.1768 C   0  0  0  0  0  0  0  0  0  0  0  0
   13.0537    9.9821   20.5781 C   0  0  0  0  0  0  0  0  0  0  0  0
   10.3850    4.6575   23.2386 O   0  0  0  0  0  0  0  0  0  0  0  0
    4.2069    6.8450   20.7994 C   0  0  0  0  0  0  0  0  0  0  0  0
    3.0726   10.1043   19.8522 O   0  0  0  0  0  0  0  0  0  0  0  0
    5.5057    7.1196   21.1155 C   0  0  0  0  0  0  0  0  0  0  0  0
    7.0367   11.0229   21.9948 O   0  0  0  0  0  0  0  0  0  0  0  0
  1  8  4  0
  1 12  4  0
  2  9  1  0
  2 11  4  0
  2 25  4  0
  3 12  4  0
  3 14  1  0
  3 23  4  0
  4 13  4  0
  4 21  4  0
  4 24  1  0
  5  8  4  0
  5 23  4  0
  6 18  2  0
  7 15  4  0
  7 16  1  0
  7 27  4  0
  8 18  1  0
 10 18  1  0
 10 20  1  0
 11 15  4  0
 11 26  1  0
 13 22  4  0
 16 19  1  0
 16 20  2  0
 17 19  4  0
 17 21  4  0
 19 22  4  0
 20 28  1  0
 25 27  4  0
M  END
$$$$

 Created by Python create_sdf_string function

 28 30  0  0  0  0  0  0  0  0999 V2000
   11.4592   11.2893   18.7941 C   0  0  0  0  0  0  0  0  0  0  0  0
    3.4202    7.9009   20.3866 C   0  0  0  0  0  0  0  0  0  0  0  0
   13.5280   10.3522   19.3586 C   0  0  0  0  0  0  0  0  0  0  0  0
    9.6923    5.6468   22.7891 C   0  0  0  0  0  0  0  0  0  0  0  0
   11.7756   10.2554   20.8841 N   0  0  0  0  0  0  0  0  0  0  0  0
    8.9876   11.9370   19.8757 O   0  0  0  0  0  0  0  0  0  0  0  0
    6.0167    8.4478   21.1089 C   0  0  0  0  0  0  0  0  0  0  0  0
   11.0002   10.8890   20.0262 C   0  0  0  0  0  0  0  0  0  0  0  0
    2.1721    7.7393   20.0315 O   0  0  0  0  0  0  0  0  0  0  0  0
    9.1107   10.3880   21.3769 N   0  0  0  0  0  0  0  0  0  0  0  0
    3.9102    9.2008   20.3124 C   0  0  0  0  0  0  0  0  0  0  0  0
   12.7292   10.9960   18.4597 C   0  0  0  0  0  0  0  0  0  0  0  0
    9.3798    6.6793   23.6625 C   0  0  0  0  0  0  0  0  0  0  0  0
   14.7425   10.0739   19.0802 O   0  0  0  0  0  0  0  0  0  0  0  0
    5.1894    9.4673   20.7118 C   0  0  0  0  0  0  0  0  0  0  0  0
    7.3773    8.8224   21.4870 C   0  0  0  0  0  0  0  0  0  0  0  0
    8.4391    6.6439   21.0235 C   0  0  0  0  0  0  0  0  0  0  0  0
    9.6494   11.1353   20.4167 C   0  0  0  0  0  0  0  0  0  0  0  0
    8.1431    7.6829   21.9046 C   0  0  0  0  0  0  0  0  0  0  0  0
    7.7796   10.1314   21.5115 N   0  0  0  0  0  0  0  0  0  0  0  0
    9.2768    5.6183   21.4437 C   0  0  0  0  0  0  0  0  0  0  0  0
    8.6315    7.7322   23.1768 C   0  0  0  0  0  0  0  0  0  0  0  0
   13.0537    9.9821   20.5781 C   0  0  0  0  0  0  0  0  0  0  0  0
   10.3850    4.6575   23.2386 O   0  0  0  0  0  0  0  0  0  0  0  0
    4.2069    6.8450   20.7994 C   0  0  0  0  0  0  0  0  0  0  0  0
    3.0726   10.1043   19.8522 O   0  0  0  0  0  0  0  0  0  0  0  0
    5.5057    7.1196   21.1155 C   0  0  0  0  0  0  0  0  0  0  0  0
    7.0367   11.0229   21.9948 O   0  0  0  0  0  0  0  0  0  0  0  0
  1  8  4  0
  1 12  4  0
  2  9  1  0
  2 11  4  0
  2 25  4  0
  3 12  4  0
  3 14  1  0
  3 23  4  0
  4 13  4  0
  4 21  4  0
  4 24  1  0
  5  8  4  0
  5 23  4  0
  6 18  2  0
  7 15  4  0
  7 16  1  0
  7 27  4  0
  8 18  1  0
 10 18  1  0
 10 20  1  0
 11 15  4  0
 11 26  1  0
 13 22  4  0
 16 19  1  0
 16 20  2  0
 17 19  4  0
 17 21  4  0
 19 22  4  0
 20 28  1  0
 25 27  4  0
M  END
$$$$

 Created by Python create_sdf_string function

 28 30  0  0  0  0  0  0  0  0999 V2000
   11.4592   11.2893   18.7941 C   0  0  0  0  0  0  0  0  0  0  0  0
    3.4202    7.9009   20.3866 C   0  0  0  0  0  0  0  0  0  0  0  0
   13.5280   10.3522   19.3586 C   0  0  0  0  0  0  0  0  0  0  0  0
    9.6923    5.6468   22.7891 C   0  0  0  0  0  0  0  0  0  0  0  0
   11.7756   10.2554   20.8841 N   0  0  0  0  0  0  0  0  0  0  0  0
    8.9876   11.9370   19.8757 O   0  0  0  0  0  0  0  0  0  0  0  0
    6.0167    8.4478   21.1089 C   0  0  0  0  0  0  0  0  0  0  0  0
   11.0002   10.8890   20.0262 C   0  0  0  0  0  0  0  0  0  0  0  0
    2.1721    7.7393   20.0315 O   0  0  0  0  0  0  0  0  0  0  0  0
    9.1107   10.3880   21.3769 N   0  0  0  0  0  0  0  0  0  0  0  0
    3.9102    9.2008   20.3124 C   0  0  0  0  0  0  0  0  0  0  0  0
   12.7292   10.9960   18.4597 C   0  0  0  0  0  0  0  0  0  0  0  0
    9.3798    6.6793   23.6625 C   0  0  0  0  0  0  0  0  0  0  0  0
   14.7425   10.0739   19.0802 O   0  0  0  0  0  0  0  0  0  0  0  0
    5.1894    9.4673   20.7118 C   0  0  0  0  0  0  0  0  0  0  0  0
    7.3773    8.8224   21.4870 C   0  0  0  0  0  0  0  0  0  0  0  0
    8.4391    6.6439   21.0235 C   0  0  0  0  0  0  0  0  0  0  0  0
    9.6494   11.1353   20.4167 C   0  0  0  0  0  0  0  0  0  0  0  0
    8.1431    7.6829   21.9046 C   0  0  0  0  0  0  0  0  0  0  0  0
    7.7796   10.1314   21.5115 N   0  0  0  0  0  0  0  0  0  0  0  0
    9.2768    5.6183   21.4437 C   0  0  0  0  0  0  0  0  0  0  0  0
    8.6315    7.7322   23.1768 C   0  0  0  0  0  0  0  0  0  0  0  0
   13.0537    9.9821   20.5781 C   0  0  0  0  0  0  0  0  0  0  0  0
   10.3850    4.6575   23.2386 O   0  0  0  0  0  0  0  0  0  0  0  0
    4.2069    6.8450   20.7994 C   0  0  0  0  0  0  0  0  0  0  0  0
    3.0726   10.1043   19.8522 O   0  0  0  0  0  0  0  0  0  0  0  0
    5.5057    7.1196   21.1155 C   0  0  0  0  0  0  0  0  0  0  0  0
    7.0367   11.0229   21.9948 O   0  0  0  0  0  0  0  0  0  0  0  0
  1  8  4  0
  1 12  4  0
  2  9  1  0
  2 11  4  0
  2 25  4  0
  3 12  4  0
  3 14  1  0
  3 23  4  0
  4 13  4  0
  4 21  4  0
  4 24  1  0
  5  8  4  0
  5 23  4  0
  6 18  2  0
  7 15  4  0
  7 16  1  0
  7 27  4  0
  8 18  1  0
 10 18  1  0
 10 20  1  0
 11 15  4  0
 11 26  1  0
 13 22  4  0
 16 19  1  0
 16 20  2  0
 17 19  4  0
 17 21  4  0
 19 22  4  0
 20 28  1  0
 25 27  4  0
M  END
$$$$

 Created by Python create_sdf_string function

 28 30  0  0  0  0  0  0  0  0999 V2000
   11.4592   11.2893   18.7941 C   0  0  0  0  0  0  0  0  0  0  0  0
    3.4202    7.9009   20.3866 C   0  0  0  0  0  0  0  0  0  0  0  0
   13.5280   10.3522   19.3586 C   0  0  0  0  0  0  0  0  0  0  0  0
    9.6923    5.6468   22.7891 C   0  0  0  0  0  0  0  0  0  0  0  0
   11.7756   10.2554   20.8841 N   0  0  0  0  0  0  0  0  0  0  0  0
    8.9876   11.9370   19.8757 O   0  0  0  0  0  0  0  0  0  0  0  0
    6.0167    8.4478   21.1089 C   0  0  0  0  0  0  0  0  0  0  0  0
   11.0002   10.8890   20.0262 C   0  0  0  0  0  0  0  0  0  0  0  0
    2.1721    7.7393   20.0315 O   0  0  0  0  0  0  0  0  0  0  0  0
    9.1107   10.3880   21.3769 N   0  0  0  0  0  0  0  0  0  0  0  0
    3.9102    9.2008   20.3124 C   0  0  0  0  0  0  0  0  0  0  0  0
   12.7292   10.9960   18.4597 C   0  0  0  0  0  0  0  0  0  0  0  0
    9.3798    6.6793   23.6625 C   0  0  0  0  0  0  0  0  0  0  0  0
   14.7425   10.0739   19.0802 O   0  0  0  0  0  0  0  0  0  0  0  0
    5.1894    9.4673   20.7118 C   0  0  0  0  0  0  0  0  0  0  0  0
    7.3773    8.8224   21.4870 C   0  0  0  0  0  0  0  0  0  0  0  0
    8.4391    6.6439   21.0235 C   0  0  0  0  0  0  0  0  0  0  0  0
    9.6494   11.1353   20.4167 C   0  0  0  0  0  0  0  0  0  0  0  0
    8.1431    7.6829   21.9046 C   0  0  0  0  0  0  0  0  0  0  0  0
    7.7796   10.1314   21.5115 N   0  0  0  0  0  0  0  0  0  0  0  0
    9.2768    5.6183   21.4437 C   0  0  0  0  0  0  0  0  0  0  0  0
    8.6315    7.7322   23.1768 C   0  0  0  0  0  0  0  0  0  0  0  0
   13.0537    9.9821   20.5781 C   0  0  0  0  0  0  0  0  0  0  0  0
   10.3850    4.6575   23.2386 O   0  0  0  0  0  0  0  0  0  0  0  0
    4.2069    6.8450   20.7994 C   0  0  0  0  0  0  0  0  0  0  0  0
    3.0726   10.1043   19.8522 O   0  0  0  0  0  0  0  0  0  0  0  0
    5.5057    7.1196   21.1155 C   0  0  0  0  0  0  0  0  0  0  0  0
    7.0367   11.0229   21.9948 O   0  0  0  0  0  0  0  0  0  0  0  0
  1  8  4  0
  1 12  4  0
  2  9  1  0
  2 11  4  0
  2 25  4  0
  3 12  4  0
  3 14  1  0
  3 23  4  0
  4 13  4  0
  4 21  4  0
  4 24  1  0
  5  8  4  0
  5 23  4  0
  6 18  2  0
  7 15  4  0
  7 16  1  0
  7 27  4  0
  8 18  1  0
 10 18  1  0
 10 20  1  0
 11 15  4  0
 11 26  1  0
 13 22  4  0
 16 19  1  0
 16 20  2  0
 17 19  4  0
 17 21  4  0
 19 22  4  0
 20 28  1  0
 25 27  4  0
M  END
$$$$

 Created by Python create_sdf_string function

 28 30  0  0  0  0  0  0  0  0999 V2000
   11.4592   11.2893   18.7941 C   0  0  0  0  0  0  0  0  0  0  0  0
    3.4202    7.9009   20.3866 C   0  0  0  0  0  0  0  0  0  0  0  0
   13.5280   10.3522   19.3586 C   0  0  0  0  0  0  0  0  0  0  0  0
    9.6923    5.6468   22.7891 C   0  0  0  0  0  0  0  0  0  0  0  0
   11.7756   10.2554   20.8841 N   0  0  0  0  0  0  0  0  0  0  0  0
    8.9876   11.9370   19.8757 O   0  0  0  0  0  0  0  0  0  0  0  0
    6.0167    8.4478   21.1089 C   0  0  0  0  0  0  0  0  0  0  0  0
   11.0002   10.8890   20.0262 C   0  0  0  0  0  0  0  0  0  0  0  0
    2.1721    7.7393   20.0315 O   0  0  0  0  0  0  0  0  0  0  0  0
    9.1107   10.3880   21.3769 N   0  0  0  0  0  0  0  0  0  0  0  0
    3.9102    9.2008   20.3124 C   0  0  0  0  0  0  0  0  0  0  0  0
   12.7292   10.9960   18.4597 C   0  0  0  0  0  0  0  0  0  0  0  0
    9.3798    6.6793   23.6625 C   0  0  0  0  0  0  0  0  0  0  0  0
   14.7425   10.0739   19.0802 O   0  0  0  0  0  0  0  0  0  0  0  0
    5.1894    9.4673   20.7118 C   0  0  0  0  0  0  0  0  0  0  0  0
    7.3773    8.8224   21.4870 C   0  0  0  0  0  0  0  0  0  0  0  0
    8.4391    6.6439   21.0235 C   0  0  0  0  0  0  0  0  0  0  0  0
    9.6494   11.1353   20.4167 C   0  0  0  0  0  0  0  0  0  0  0  0
    8.1431    7.6829   21.9046 C   0  0  0  0  0  0  0  0  0  0  0  0
    7.7796   10.1314   21.5115 N   0  0  0  0  0  0  0  0  0  0  0  0
    9.2768    5.6183   21.4437 C   0  0  0  0  0  0  0  0  0  0  0  0
    8.6315    7.7322   23.1768 C   0  0  0  0  0  0  0  0  0  0  0  0
   13.0537    9.9821   20.5781 C   0  0  0  0  0  0  0  0  0  0  0  0
   10.3850    4.6575   23.2386 O   0  0  0  0  0  0  0  0  0  0  0  0
    4.2069    6.8450   20.7994 C   0  0  0  0  0  0  0  0  0  0  0  0
    3.0726   10.1043   19.8522 O   0  0  0  0  0  0  0  0  0  0  0  0
    5.5057    7.1196   21.1155 C   0  0  0  0  0  0  0  0  0  0  0  0
    7.0367   11.0229   21.9948 O   0  0  0  0  0  0  0  0  0  0  0  0
  1  8  4  0
  1 12  4  0
  2  9  1  0
  2 11  4  0
  2 25  4  0
  3 12  4  0
  3 14  1  0
  3 23  4  0
  4 13  4  0
  4 21  4  0
  4 24  1  0
  5  8  4  0
  5 23  4  0
  6 18  2  0
  7 15  4  0
  7 16  1  0
  7 27  4  0
  8 18  1  0
 10 18  1  0
 10 20  1  0
 11 15  4  0
 11 26  1  0
 13 22  4  0
 16 19  1  0
 16 20  2  0
 17 19  4  0
 17 21  4  0
 19 22  4  0
 20 28  1  0
 25 27  4  0
M  END
$$$$

 Created by Python create_sdf_string function

 28 30  0  0  0  0  0  0  0  0999 V2000
   11.4592   11.2893   18.7941 C   0  0  0  0  0  0  0  0  0  0  0  0
    3.4202    7.9009   20.3866 C   0  0  0  0  0  0  0  0  0  0  0  0
   13.5280   10.3522   19.3586 C   0  0  0  0  0  0  0  0  0  0  0  0
    9.6923    5.6468   22.7891 C   0  0  0  0  0  0  0  0  0  0  0  0
   11.7756   10.2554   20.8841 N   0  0  0  0  0  0  0  0  0  0  0  0
    8.9876   11.9370   19.8757 O   0  0  0  0  0  0  0  0  0  0  0  0
    6.0167    8.4478   21.1089 C   0  0  0  0  0  0  0  0  0  0  0  0
   11.0002   10.8890   20.0262 C   0  0  0  0  0  0  0  0  0  0  0  0
    2.1721    7.7393   20.0315 O   0  0  0  0  0  0  0  0  0  0  0  0
    9.1107   10.3880   21.3769 N   0  0  0  0  0  0  0  0  0  0  0  0
    3.9102    9.2008   20.3124 C   0  0  0  0  0  0  0  0  0  0  0  0
   12.7292   10.9960   18.4597 C   0  0  0  0  0  0  0  0  0  0  0  0
    9.3798    6.6793   23.6625 C   0  0  0  0  0  0  0  0  0  0  0  0
   14.7425   10.0739   19.0802 O   0  0  0  0  0  0  0  0  0  0  0  0
    5.1894    9.4673   20.7118 C   0  0  0  0  0  0  0  0  0  0  0  0
    7.3773    8.8224   21.4870 C   0  0  0  0  0  0  0  0  0  0  0  0
    8.4391    6.6439   21.0235 C   0  0  0  0  0  0  0  0  0  0  0  0
    9.6494   11.1353   20.4167 C   0  0  0  0  0  0  0  0  0  0  0  0
    8.1431    7.6829   21.9046 C   0  0  0  0  0  0  0  0  0  0  0  0
    7.7796   10.1314   21.5115 N   0  0  0  0  0  0  0  0  0  0  0  0
    9.2768    5.6183   21.4437 C   0  0  0  0  0  0  0  0  0  0  0  0
    8.6315    7.7322   23.1768 C   0  0  0  0  0  0  0  0  0  0  0  0
   13.0537    9.9821   20.5781 C   0  0  0  0  0  0  0  0  0  0  0  0
   10.3850    4.6575   23.2386 O   0  0  0  0  0  0  0  0  0  0  0  0
    4.2069    6.8450   20.7994 C   0  0  0  0  0  0  0  0  0  0  0  0
    3.0726   10.1043   19.8522 O   0  0  0  0  0  0  0  0  0  0  0  0
    5.5057    7.1196   21.1155 C   0  0  0  0  0  0  0  0  0  0  0  0
    7.0367   11.0229   21.9948 O   0  0  0  0  0  0  0  0  0  0  0  0
  1  8  4  0
  1 12  4  0
  2  9  1  0
  2 11  4  0
  2 25  4  0
  3 12  4  0
  3 14  1  0
  3 23  4  0
  4 13  4  0
  4 21  4  0
  4 24  1  0
  5  8  4  0
  5 23  4  0
  6 18  2  0
  7 15  4  0
  7 16  1  0
  7 27  4  0
  8 18  1  0
 10 18  1  0
 10 20  1  0
 11 15  4  0
 11 26  1  0
 13 22  4  0
 16 19  1  0
 16 20  2  0
 17 19  4  0
 17 21  4  0
 19 22  4  0
 20 28  1  0
 25 27  4  0
M  END
$$$$

 Created by Python create_sdf_string function

 28 30  0  0  0  0  0  0  0  0999 V2000
   11.4592   11.2893   18.7941 C   0  0  0  0  0  0  0  0  0  0  0  0
    3.4202    7.9009   20.3866 C   0  0  0  0  0  0  0  0  0  0  0  0
   13.5280   10.3522   19.3586 C   0  0  0  0  0  0  0  0  0  0  0  0
    9.6923    5.6468   22.7891 C   0  0  0  0  0  0  0  0  0  0  0  0
   11.7756   10.2554   20.8841 N   0  0  0  0  0  0  0  0  0  0  0  0
    8.9876   11.9370   19.8757 O   0  0  0  0  0  0  0  0  0  0  0  0
    6.0167    8.4478   21.1089 C   0  0  0  0  0  0  0  0  0  0  0  0
   11.0002   10.8890   20.0262 C   0  0  0  0  0  0  0  0  0  0  0  0
    2.1721    7.7393   20.0315 O   0  0  0  0  0  0  0  0  0  0  0  0
    9.1107   10.3880   21.3769 N   0  0  0  0  0  0  0  0  0  0  0  0
    3.9102    9.2008   20.3124 C   0  0  0  0  0  0  0  0  0  0  0  0
   12.7292   10.9960   18.4597 C   0  0  0  0  0  0  0  0  0  0  0  0
    9.3798    6.6793   23.6625 C   0  0  0  0  0  0  0  0  0  0  0  0
   14.7425   10.0739   19.0802 O   0  0  0  0  0  0  0  0  0  0  0  0
    5.1894    9.4673   20.7118 C   0  0  0  0  0  0  0  0  0  0  0  0
    7.3773    8.8224   21.4870 C   0  0  0  0  0  0  0  0  0  0  0  0
    8.4391    6.6439   21.0235 C   0  0  0  0  0  0  0  0  0  0  0  0
    9.6494   11.1353   20.4167 C   0  0  0  0  0  0  0  0  0  0  0  0
    8.1431    7.6829   21.9046 C   0  0  0  0  0  0  0  0  0  0  0  0
    7.7796   10.1314   21.5115 N   0  0  0  0  0  0  0  0  0  0  0  0
    9.2768    5.6183   21.4437 C   0  0  0  0  0  0  0  0  0  0  0  0
    8.6315    7.7322   23.1768 C   0  0  0  0  0  0  0  0  0  0  0  0
   13.0537    9.9821   20.5781 C   0  0  0  0  0  0  0  0  0  0  0  0
   10.3850    4.6575   23.2386 O   0  0  0  0  0  0  0  0  0  0  0  0
    4.2069    6.8450   20.7994 C   0  0  0  0  0  0  0  0  0  0  0  0
    3.0726   10.1043   19.8522 O   0  0  0  0  0  0  0  0  0  0  0  0
    5.5057    7.1196   21.1155 C   0  0  0  0  0  0  0  0  0  0  0  0
    7.0367   11.0229   21.9948 O   0  0  0  0  0  0  0  0  0  0  0  0
  1  8  4  0
  1 12  4  0
  2  9  1  0
  2 11  4  0
  2 25  4  0
  3 12  4  0
  3 14  1  0
  3 23  4  0
  4 13  4  0
  4 21  4  0
  4 24  1  0
  5  8  4  0
  5 23  4  0
  6 18  2  0
  7 15  4  0
  7 16  1  0
  7 27  4  0
  8 18  1  0
 10 18  1  0
 10 20  1  0
 11 15  4  0
 11 26  1  0
 13 22  4  0
 16 19  1  0
 16 20  2  0
 17 19  4  0
 17 21  4  0
 19 22  4  0
 20 28  1  0
 25 27  4  0
M  END
$$$$

 Created by Python create_sdf_string function

 28 30  0  0  0  0  0  0  0  0999 V2000
   11.4592   11.2893   18.7941 C   0  0  0  0  0  0  0  0  0  0  0  0
    3.4202    7.9009   20.3866 C   0  0  0  0  0  0  0  0  0  0  0  0
   13.5280   10.3522   19.3586 C   0  0  0  0  0  0  0  0  0  0  0  0
    9.6923    5.6468   22.7891 C   0  0  0  0  0  0  0  0  0  0  0  0
   11.7756   10.2554   20.8841 N   0  0  0  0  0  0  0  0  0  0  0  0
    8.9876   11.9370   19.8757 O   0  0  0  0  0  0  0  0  0  0  0  0
    6.0167    8.4478   21.1089 C   0  0  0  0  0  0  0  0  0  0  0  0
   11.0002   10.8890   20.0262 C   0  0  0  0  0  0  0  0  0  0  0  0
    2.1721    7.7393   20.0315 O   0  0  0  0  0  0  0  0  0  0  0  0
    9.1107   10.3880   21.3769 N   0  0  0  0  0  0  0  0  0  0  0  0
    3.9102    9.2008   20.3124 C   0  0  0  0  0  0  0  0  0  0  0  0
   12.7292   10.9960   18.4597 C   0  0  0  0  0  0  0  0  0  0  0  0
    9.3798    6.6793   23.6625 C   0  0  0  0  0  0  0  0  0  0  0  0
   14.7425   10.0739   19.0802 O   0  0  0  0  0  0  0  0  0  0  0  0
    5.1894    9.4673   20.7118 C   0  0  0  0  0  0  0  0  0  0  0  0
    7.3773    8.8224   21.4870 C   0  0  0  0  0  0  0  0  0  0  0  0
    8.4391    6.6439   21.0235 C   0  0  0  0  0  0  0  0  0  0  0  0
    9.6494   11.1353   20.4167 C   0  0  0  0  0  0  0  0  0  0  0  0
    8.1431    7.6829   21.9046 C   0  0  0  0  0  0  0  0  0  0  0  0
    7.7796   10.1314   21.5115 N   0  0  0  0  0  0  0  0  0  0  0  0
    9.2768    5.6183   21.4437 C   0  0  0  0  0  0  0  0  0  0  0  0
    8.6315    7.7322   23.1768 C   0  0  0  0  0  0  0  0  0  0  0  0
   13.0537    9.9821   20.5781 C   0  0  0  0  0  0  0  0  0  0  0  0
   10.3850    4.6575   23.2386 O   0  0  0  0  0  0  0  0  0  0  0  0
    4.2069    6.8450   20.7994 C   0  0  0  0  0  0  0  0  0  0  0  0
    3.0726   10.1043   19.8522 O   0  0  0  0  0  0  0  0  0  0  0  0
    5.5057    7.1196   21.1155 C   0  0  0  0  0  0  0  0  0  0  0  0
    7.0367   11.0229   21.9948 O   0  0  0  0  0  0  0  0  0  0  0  0
  1  8  4  0
  1 12  4  0
  2  9  1  0
  2 11  4  0
  2 25  4  0
  3 12  4  0
  3 14  1  0
  3 23  4  0
  4 13  4  0
  4 21  4  0
  4 24  1  0
  5  8  4  0
  5 23  4  0
  6 18  2  0
  7 15  4  0
  7 16  1  0
  7 27  4  0
  8 18  1  0
 10 18  1  0
 10 20  1  0
 11 15  4  0
 11 26  1  0
 13 22  4  0
 16 19  1  0
 16 20  2  0
 17 19  4  0
 17 21  4  0
 19 22  4  0
 20 28  1  0
 25 27  4  0
M  END
$$$$

 Created by Python create_sdf_string function

 28 30  0  0  0  0  0  0  0  0999 V2000
   11.4592   11.2893   18.7941 C   0  0  0  0  0  0  0  0  0  0  0  0
    3.4202    7.9009   20.3866 C   0  0  0  0  0  0  0  0  0  0  0  0
   13.5280   10.3522   19.3586 C   0  0  0  0  0  0  0  0  0  0  0  0
    9.6923    5.6468   22.7891 C   0  0  0  0  0  0  0  0  0  0  0  0
   11.7756   10.2554   20.8841 N   0  0  0  0  0  0  0  0  0  0  0  0
    8.9876   11.9370   19.8757 O   0  0  0  0  0  0  0  0  0  0  0  0
    6.0167    8.4478   21.1089 C   0  0  0  0  0  0  0  0  0  0  0  0
   11.0002   10.8890   20.0262 C   0  0  0  0  0  0  0  0  0  0  0  0
    2.1721    7.7393   20.0315 O   0  0  0  0  0  0  0  0  0  0  0  0
    9.1107   10.3880   21.3769 N   0  0  0  0  0  0  0  0  0  0  0  0
    3.9102    9.2008   20.3124 C   0  0  0  0  0  0  0  0  0  0  0  0
   12.7292   10.9960   18.4597 C   0  0  0  0  0  0  0  0  0  0  0  0
    9.3798    6.6793   23.6625 C   0  0  0  0  0  0  0  0  0  0  0  0
   14.7425   10.0739   19.0802 O   0  0  0  0  0  0  0  0  0  0  0  0
    5.1894    9.4673   20.7118 C   0  0  0  0  0  0  0  0  0  0  0  0
    7.3773    8.8224   21.4870 C   0  0  0  0  0  0  0  0  0  0  0  0
    8.4391    6.6439   21.0235 C   0  0  0  0  0  0  0  0  0  0  0  0
    9.6494   11.1353   20.4167 C   0  0  0  0  0  0  0  0  0  0  0  0
    8.1431    7.6829   21.9046 C   0  0  0  0  0  0  0  0  0  0  0  0
    7.7796   10.1314   21.5115 N   0  0  0  0  0  0  0  0  0  0  0  0
    9.2768    5.6183   21.4437 C   0  0  0  0  0  0  0  0  0  0  0  0
    8.6315    7.7322   23.1768 C   0  0  0  0  0  0  0  0  0  0  0  0
   13.0537    9.9821   20.5781 C   0  0  0  0  0  0  0  0  0  0  0  0
   10.3850    4.6575   23.2386 O   0  0  0  0  0  0  0  0  0  0  0  0
    4.2069    6.8450   20.7994 C   0  0  0  0  0  0  0  0  0  0  0  0
    3.0726   10.1043   19.8522 O   0  0  0  0  0  0  0  0  0  0  0  0
    5.5057    7.1196   21.1155 C   0  0  0  0  0  0  0  0  0  0  0  0
    7.0367   11.0229   21.9948 O   0  0  0  0  0  0  0  0  0  0  0  0
  1  8  4  0
  1 12  4  0
  2  9  1  0
  2 11  4  0
  2 25  4  0
  3 12  4  0
  3 14  1  0
  3 23  4  0
  4 13  4  0
  4 21  4  0
  4 24  1  0
  5  8  4  0
  5 23  4  0
  6 18  2  0
  7 15  4  0
  7 16  1  0
  7 27  4  0
  8 18  1  0
 10 18  1  0
 10 20  1  0
 11 15  4  0
 11 26  1  0
 13 22  4  0
 16 19  1  0
 16 20  2  0
 17 19  4  0
 17 21  4  0
 19 22  4  0
 20 28  1  0
 25 27  4  0
M  END
$$$$

 Created by Python create_sdf_string function

 28 30  0  0  0  0  0  0  0  0999 V2000
   11.4592   11.2893   18.7941 C   0  0  0  0  0  0  0  0  0  0  0  0
    3.4202    7.9009   20.3866 C   0  0  0  0  0  0  0  0  0  0  0  0
   13.5280   10.3522   19.3586 C   0  0  0  0  0  0  0  0  0  0  0  0
    9.6923    5.6468   22.7891 C   0  0  0  0  0  0  0  0  0  0  0  0
   11.7756   10.2554   20.8841 N   0  0  0  0  0  0  0  0  0  0  0  0
    8.9876   11.9370   19.8757 O   0  0  0  0  0  0  0  0  0  0  0  0
    6.0167    8.4478   21.1089 C   0  0  0  0  0  0  0  0  0  0  0  0
   11.0002   10.8890   20.0262 C   0  0  0  0  0  0  0  0  0  0  0  0
    2.1721    7.7393   20.0315 O   0  0  0  0  0  0  0  0  0  0  0  0
    9.1107   10.3880   21.3769 N   0  0  0  0  0  0  0  0  0  0  0  0
    3.9102    9.2008   20.3124 C   0  0  0  0  0  0  0  0  0  0  0  0
   12.7292   10.9960   18.4597 C   0  0  0  0  0  0  0  0  0  0  0  0
    9.3798    6.6793   23.6625 C   0  0  0  0  0  0  0  0  0  0  0  0
   14.7425   10.0739   19.0802 O   0  0  0  0  0  0  0  0  0  0  0  0
    5.1894    9.4673   20.7118 C   0  0  0  0  0  0  0  0  0  0  0  0
    7.3773    8.8224   21.4870 C   0  0  0  0  0  0  0  0  0  0  0  0
    8.4391    6.6439   21.0235 C   0  0  0  0  0  0  0  0  0  0  0  0
    9.6494   11.1353   20.4167 C   0  0  0  0  0  0  0  0  0  0  0  0
    8.1431    7.6829   21.9046 C   0  0  0  0  0  0  0  0  0  0  0  0
    7.7796   10.1314   21.5115 N   0  0  0  0  0  0  0  0  0  0  0  0
    9.2768    5.6183   21.4437 C   0  0  0  0  0  0  0  0  0  0  0  0
    8.6315    7.7322   23.1768 C   0  0  0  0  0  0  0  0  0  0  0  0
   13.0537    9.9821   20.5781 C   0  0  0  0  0  0  0  0  0  0  0  0
   10.3850    4.6575   23.2386 O   0  0  0  0  0  0  0  0  0  0  0  0
    4.2069    6.8450   20.7994 C   0  0  0  0  0  0  0  0  0  0  0  0
    3.0726   10.1043   19.8522 O   0  0  0  0  0  0  0  0  0  0  0  0
    5.5057    7.1196   21.1155 C   0  0  0  0  0  0  0  0  0  0  0  0
    7.0367   11.0229   21.9948 O   0  0  0  0  0  0  0  0  0  0  0  0
  1  8  4  0
  1 12  4  0
  2  9  1  0
  2 11  4  0
  2 25  4  0
  3 12  4  0
  3 14  1  0
  3 23  4  0
  4 13  4  0
  4 21  4  0
  4 24  1  0
  5  8  4  0
  5 23  4  0
  6 18  2  0
  7 15  4  0
  7 16  1  0
  7 27  4  0
  8 18  1  0
 10 18  1  0
 10 20  1  0
 11 15  4  0
 11 26  1  0
 13 22  4  0
 16 19  1  0
 16 20  2  0
 17 19  4  0
 17 21  4  0
 19 22  4  0
 20 28  1  0
 25 27  4  0
M  END
$$$$

 Created by Python create_sdf_string function

 28 30  0  0  0  0  0  0  0  0999 V2000
   11.4592   11.2893   18.7941 C   0  0  0  0  0  0  0  0  0  0  0  0
    3.4202    7.9009   20.3866 C   0  0  0  0  0  0  0  0  0  0  0  0
   13.5280   10.3522   19.3586 C   0  0  0  0  0  0  0  0  0  0  0  0
    9.6923    5.6468   22.7891 C   0  0  0  0  0  0  0  0  0  0  0  0
   11.7756   10.2554   20.8841 N   0  0  0  0  0  0  0  0  0  0  0  0
    8.9876   11.9370   19.8757 O   0  0  0  0  0  0  0  0  0  0  0  0
    6.0167    8.4478   21.1089 C   0  0  0  0  0  0  0  0  0  0  0  0
   11.0002   10.8890   20.0262 C   0  0  0  0  0  0  0  0  0  0  0  0
    2.1721    7.7393   20.0315 O   0  0  0  0  0  0  0  0  0  0  0  0
    9.1107   10.3880   21.3769 N   0  0  0  0  0  0  0  0  0  0  0  0
    3.9102    9.2008   20.3124 C   0  0  0  0  0  0  0  0  0  0  0  0
   12.7292   10.9960   18.4597 C   0  0  0  0  0  0  0  0  0  0  0  0
    9.3798    6.6793   23.6625 C   0  0  0  0  0  0  0  0  0  0  0  0
   14.7425   10.0739   19.0802 O   0  0  0  0  0  0  0  0  0  0  0  0
    5.1894    9.4673   20.7118 C   0  0  0  0  0  0  0  0  0  0  0  0
    7.3773    8.8224   21.4870 C   0  0  0  0  0  0  0  0  0  0  0  0
    8.4391    6.6439   21.0235 C   0  0  0  0  0  0  0  0  0  0  0  0
    9.6494   11.1353   20.4167 C   0  0  0  0  0  0  0  0  0  0  0  0
    8.1431    7.6829   21.9046 C   0  0  0  0  0  0  0  0  0  0  0  0
    7.7796   10.1314   21.5115 N   0  0  0  0  0  0  0  0  0  0  0  0
    9.2768    5.6183   21.4437 C   0  0  0  0  0  0  0  0  0  0  0  0
    8.6315    7.7322   23.1768 C   0  0  0  0  0  0  0  0  0  0  0  0
   13.0537    9.9821   20.5781 C   0  0  0  0  0  0  0  0  0  0  0  0
   10.3850    4.6575   23.2386 O   0  0  0  0  0  0  0  0  0  0  0  0
    4.2069    6.8450   20.7994 C   0  0  0  0  0  0  0  0  0  0  0  0
    3.0726   10.1043   19.8522 O   0  0  0  0  0  0  0  0  0  0  0  0
    5.5057    7.1196   21.1155 C   0  0  0  0  0  0  0  0  0  0  0  0
    7.0367   11.0229   21.9948 O   0  0  0  0  0  0  0  0  0  0  0  0
  1  8  4  0
  1 12  4  0
  2  9  1  0
  2 11  4  0
  2 25  4  0
  3 12  4  0
  3 14  1  0
  3 23  4  0
  4 13  4  0
  4 21  4  0
  4 24  1  0
  5  8  4  0
  5 23  4  0
  6 18  2  0
  7 15  4  0
  7 16  1  0
  7 27  4  0
  8 18  1  0
 10 18  1  0
 10 20  1  0
 11 15  4  0
 11 26  1  0
 13 22  4  0
 16 19  1  0
 16 20  2  0
 17 19  4  0
 17 21  4  0
 19 22  4  0
 20 28  1  0
 25 27  4  0
M  END
$$$$

 Created by Python create_sdf_string function

 28 30  0  0  0  0  0  0  0  0999 V2000
   11.4592   11.2893   18.7941 C   0  0  0  0  0  0  0  0  0  0  0  0
    3.4202    7.9009   20.3866 C   0  0  0  0  0  0  0  0  0  0  0  0
   13.5280   10.3522   19.3586 C   0  0  0  0  0  0  0  0  0  0  0  0
    9.6923    5.6468   22.7891 C   0  0  0  0  0  0  0  0  0  0  0  0
   11.7756   10.2554   20.8841 N   0  0  0  0  0  0  0  0  0  0  0  0
    8.9876   11.9370   19.8757 O   0  0  0  0  0  0  0  0  0  0  0  0
    6.0167    8.4478   21.1089 C   0  0  0  0  0  0  0  0  0  0  0  0
   11.0002   10.8890   20.0262 C   0  0  0  0  0  0  0  0  0  0  0  0
    2.1721    7.7393   20.0315 O   0  0  0  0  0  0  0  0  0  0  0  0
    9.1107   10.3880   21.3769 N   0  0  0  0  0  0  0  0  0  0  0  0
    3.9102    9.2008   20.3124 C   0  0  0  0  0  0  0  0  0  0  0  0
   12.7292   10.9960   18.4597 C   0  0  0  0  0  0  0  0  0  0  0  0
    9.3798    6.6793   23.6625 C   0  0  0  0  0  0  0  0  0  0  0  0
   14.7425   10.0739   19.0802 O   0  0  0  0  0  0  0  0  0  0  0  0
    5.1894    9.4673   20.7118 C   0  0  0  0  0  0  0  0  0  0  0  0
    7.3773    8.8224   21.4870 C   0  0  0  0  0  0  0  0  0  0  0  0
    8.4391    6.6439   21.0235 C   0  0  0  0  0  0  0  0  0  0  0  0
    9.6494   11.1353   20.4167 C   0  0  0  0  0  0  0  0  0  0  0  0
    8.1431    7.6829   21.9046 C   0  0  0  0  0  0  0  0  0  0  0  0
    7.7796   10.1314   21.5115 N   0  0  0  0  0  0  0  0  0  0  0  0
    9.2768    5.6183   21.4437 C   0  0  0  0  0  0  0  0  0  0  0  0
    8.6315    7.7322   23.1768 C   0  0  0  0  0  0  0  0  0  0  0  0
   13.0537    9.9821   20.5781 C   0  0  0  0  0  0  0  0  0  0  0  0
   10.3850    4.6575   23.2386 O   0  0  0  0  0  0  0  0  0  0  0  0
    4.2069    6.8450   20.7994 C   0  0  0  0  0  0  0  0  0  0  0  0
    3.0726   10.1043   19.8522 O   0  0  0  0  0  0  0  0  0  0  0  0
    5.5057    7.1196   21.1155 C   0  0  0  0  0  0  0  0  0  0  0  0
    7.0367   11.0229   21.9948 O   0  0  0  0  0  0  0  0  0  0  0  0
  1  8  4  0
  1 12  4  0
  2  9  1  0
  2 11  4  0
  2 25  4  0
  3 12  4  0
  3 14  1  0
  3 23  4  0
  4 13  4  0
  4 21  4  0
  4 24  1  0
  5  8  4  0
  5 23  4  0
  6 18  2  0
  7 15  4  0
  7 16  1  0
  7 27  4  0
  8 18  1  0
 10 18  1  0
 10 20  1  0
 11 15  4  0
 11 26  1  0
 13 22  4  0
 16 19  1  0
 16 20  2  0
 17 19  4  0
 17 21  4  0
 19 22  4  0
 20 28  1  0
 25 27  4  0
M  END
$$$$

 Created by Python create_sdf_string function

 28 30  0  0  0  0  0  0  0  0999 V2000
   11.4592   11.2893   18.7941 C   0  0  0  0  0  0  0  0  0  0  0  0
    3.4202    7.9009   20.3866 C   0  0  0  0  0  0  0  0  0  0  0  0
   13.5280   10.3522   19.3586 C   0  0  0  0  0  0  0  0  0  0  0  0
    9.6923    5.6468   22.7891 C   0  0  0  0  0  0  0  0  0  0  0  0
   11.7756   10.2554   20.8841 N   0  0  0  0  0  0  0  0  0  0  0  0
    8.9876   11.9370   19.8757 O   0  0  0  0  0  0  0  0  0  0  0  0
    6.0167    8.4478   21.1089 C   0  0  0  0  0  0  0  0  0  0  0  0
   11.0002   10.8890   20.0262 C   0  0  0  0  0  0  0  0  0  0  0  0
    2.1721    7.7393   20.0315 O   0  0  0  0  0  0  0  0  0  0  0  0
    9.1107   10.3880   21.3769 N   0  0  0  0  0  0  0  0  0  0  0  0
    3.9102    9.2008   20.3124 C   0  0  0  0  0  0  0  0  0  0  0  0
   12.7292   10.9960   18.4597 C   0  0  0  0  0  0  0  0  0  0  0  0
    9.3798    6.6793   23.6625 C   0  0  0  0  0  0  0  0  0  0  0  0
   14.7425   10.0739   19.0802 O   0  0  0  0  0  0  0  0  0  0  0  0
    5.1894    9.4673   20.7118 C   0  0  0  0  0  0  0  0  0  0  0  0
    7.3773    8.8224   21.4870 C   0  0  0  0  0  0  0  0  0  0  0  0
    8.4391    6.6439   21.0235 C   0  0  0  0  0  0  0  0  0  0  0  0
    9.6494   11.1353   20.4167 C   0  0  0  0  0  0  0  0  0  0  0  0
    8.1431    7.6829   21.9046 C   0  0  0  0  0  0  0  0  0  0  0  0
    7.7796   10.1314   21.5115 N   0  0  0  0  0  0  0  0  0  0  0  0
    9.2768    5.6183   21.4437 C   0  0  0  0  0  0  0  0  0  0  0  0
    8.6315    7.7322   23.1768 C   0  0  0  0  0  0  0  0  0  0  0  0
   13.0537    9.9821   20.5781 C   0  0  0  0  0  0  0  0  0  0  0  0
   10.3850    4.6575   23.2386 O   0  0  0  0  0  0  0  0  0  0  0  0
    4.2069    6.8450   20.7994 C   0  0  0  0  0  0  0  0  0  0  0  0
    3.0726   10.1043   19.8522 O   0  0  0  0  0  0  0  0  0  0  0  0
    5.5057    7.1196   21.1155 C   0  0  0  0  0  0  0  0  0  0  0  0
    7.0367   11.0229   21.9948 O   0  0  0  0  0  0  0  0  0  0  0  0
  1  8  4  0
  1 12  4  0
  2  9  1  0
  2 11  4  0
  2 25  4  0
  3 12  4  0
  3 14  1  0
  3 23  4  0
  4 13  4  0
  4 21  4  0
  4 24  1  0
  5  8  4  0
  5 23  4  0
  6 18  2  0
  7 15  4  0
  7 16  1  0
  7 27  4  0
  8 18  1  0
 10 18  1  0
 10 20  1  0
 11 15  4  0
 11 26  1  0
 13 22  4  0
 16 19  1  0
 16 20  2  0
 17 19  4  0
 17 21  4  0
 19 22  4  0
 20 28  1  0
 25 27  4  0
M  END
$$$$

 Created by Python create_sdf_string function

 28 30  0  0  0  0  0  0  0  0999 V2000
   11.4592   11.2893   18.7941 C   0  0  0  0  0  0  0  0  0  0  0  0
    3.4202    7.9009   20.3866 C   0  0  0  0  0  0  0  0  0  0  0  0
   13.5280   10.3522   19.3586 C   0  0  0  0  0  0  0  0  0  0  0  0
    9.6923    5.6468   22.7891 C   0  0  0  0  0  0  0  0  0  0  0  0
   11.7756   10.2554   20.8841 N   0  0  0  0  0  0  0  0  0  0  0  0
    8.9876   11.9370   19.8757 O   0  0  0  0  0  0  0  0  0  0  0  0
    6.0167    8.4478   21.1089 C   0  0  0  0  0  0  0  0  0  0  0  0
   11.0002   10.8890   20.0262 C   0  0  0  0  0  0  0  0  0  0  0  0
    2.1721    7.7393   20.0315 O   0  0  0  0  0  0  0  0  0  0  0  0
    9.1107   10.3880   21.3769 N   0  0  0  0  0  0  0  0  0  0  0  0
    3.9102    9.2008   20.3124 C   0  0  0  0  0  0  0  0  0  0  0  0
   12.7292   10.9960   18.4597 C   0  0  0  0  0  0  0  0  0  0  0  0
    9.3798    6.6793   23.6625 C   0  0  0  0  0  0  0  0  0  0  0  0
   14.7425   10.0739   19.0802 O   0  0  0  0  0  0  0  0  0  0  0  0
    5.1894    9.4673   20.7118 C   0  0  0  0  0  0  0  0  0  0  0  0
    7.3773    8.8224   21.4870 C   0  0  0  0  0  0  0  0  0  0  0  0
    8.4391    6.6439   21.0235 C   0  0  0  0  0  0  0  0  0  0  0  0
    9.6494   11.1353   20.4167 C   0  0  0  0  0  0  0  0  0  0  0  0
    8.1431    7.6829   21.9046 C   0  0  0  0  0  0  0  0  0  0  0  0
    7.7796   10.1314   21.5115 N   0  0  0  0  0  0  0  0  0  0  0  0
    9.2768    5.6183   21.4437 C   0  0  0  0  0  0  0  0  0  0  0  0
    8.6315    7.7322   23.1768 C   0  0  0  0  0  0  0  0  0  0  0  0
   13.0537    9.9821   20.5781 C   0  0  0  0  0  0  0  0  0  0  0  0
   10.3850    4.6575   23.2386 O   0  0  0  0  0  0  0  0  0  0  0  0
    4.2069    6.8450   20.7994 C   0  0  0  0  0  0  0  0  0  0  0  0
    3.0726   10.1043   19.8522 O   0  0  0  0  0  0  0  0  0  0  0  0
    5.5057    7.1196   21.1155 C   0  0  0  0  0  0  0  0  0  0  0  0
    7.0367   11.0229   21.9948 O   0  0  0  0  0  0  0  0  0  0  0  0
  1  8  4  0
  1 12  4  0
  2  9  1  0
  2 11  4  0
  2 25  4  0
  3 12  4  0
  3 14  1  0
  3 23  4  0
  4 13  4  0
  4 21  4  0
  4 24  1  0
  5  8  4  0
  5 23  4  0
  6 18  2  0
  7 15  4  0
  7 16  1  0
  7 27  4  0
  8 18  1  0
 10 18  1  0
 10 20  1  0
 11 15  4  0
 11 26  1  0
 13 22  4  0
 16 19  1  0
 16 20  2  0
 17 19  4  0
 17 21  4  0
 19 22  4  0
 20 28  1  0
 25 27  4  0
M  END
$$$$

 Created by Python create_sdf_string function

 28 30  0  0  0  0  0  0  0  0999 V2000
   11.4592   11.2893   18.7941 C   0  0  0  0  0  0  0  0  0  0  0  0
    3.4202    7.9009   20.3866 C   0  0  0  0  0  0  0  0  0  0  0  0
   13.5280   10.3522   19.3586 C   0  0  0  0  0  0  0  0  0  0  0  0
    9.6923    5.6468   22.7891 C   0  0  0  0  0  0  0  0  0  0  0  0
   11.7756   10.2554   20.8841 N   0  0  0  0  0  0  0  0  0  0  0  0
    8.9876   11.9370   19.8757 O   0  0  0  0  0  0  0  0  0  0  0  0
    6.0167    8.4478   21.1089 C   0  0  0  0  0  0  0  0  0  0  0  0
   11.0002   10.8890   20.0262 C   0  0  0  0  0  0  0  0  0  0  0  0
    2.1721    7.7393   20.0315 O   0  0  0  0  0  0  0  0  0  0  0  0
    9.1107   10.3880   21.3769 N   0  0  0  0  0  0  0  0  0  0  0  0
    3.9102    9.2008   20.3124 C   0  0  0  0  0  0  0  0  0  0  0  0
   12.7292   10.9960   18.4597 C   0  0  0  0  0  0  0  0  0  0  0  0
    9.3798    6.6793   23.6625 C   0  0  0  0  0  0  0  0  0  0  0  0
   14.7425   10.0739   19.0802 O   0  0  0  0  0  0  0  0  0  0  0  0
    5.1894    9.4673   20.7118 C   0  0  0  0  0  0  0  0  0  0  0  0
    7.3773    8.8224   21.4870 C   0  0  0  0  0  0  0  0  0  0  0  0
    8.4391    6.6439   21.0235 C   0  0  0  0  0  0  0  0  0  0  0  0
    9.6494   11.1353   20.4167 C   0  0  0  0  0  0  0  0  0  0  0  0
    8.1431    7.6829   21.9046 C   0  0  0  0  0  0  0  0  0  0  0  0
    7.7796   10.1314   21.5115 N   0  0  0  0  0  0  0  0  0  0  0  0
    9.2768    5.6183   21.4437 C   0  0  0  0  0  0  0  0  0  0  0  0
    8.6315    7.7322   23.1768 C   0  0  0  0  0  0  0  0  0  0  0  0
   13.0537    9.9821   20.5781 C   0  0  0  0  0  0  0  0  0  0  0  0
   10.3850    4.6575   23.2386 O   0  0  0  0  0  0  0  0  0  0  0  0
    4.2069    6.8450   20.7994 C   0  0  0  0  0  0  0  0  0  0  0  0
    3.0726   10.1043   19.8522 O   0  0  0  0  0  0  0  0  0  0  0  0
    5.5057    7.1196   21.1155 C   0  0  0  0  0  0  0  0  0  0  0  0
    7.0367   11.0229   21.9948 O   0  0  0  0  0  0  0  0  0  0  0  0
  1  8  4  0
  1 12  4  0
  2  9  1  0
  2 11  4  0
  2 25  4  0
  3 12  4  0
  3 14  1  0
  3 23  4  0
  4 13  4  0
  4 21  4  0
  4 24  1  0
  5  8  4  0
  5 23  4  0
  6 18  2  0
  7 15  4  0
  7 16  1  0
  7 27  4  0
  8 18  1  0
 10 18  1  0
 10 20  1  0
 11 15  4  0
 11 26  1  0
 13 22  4  0
 16 19  1  0
 16 20  2  0
 17 19  4  0
 17 21  4  0
 19 22  4  0
 20 28  1  0
 25 27  4  0
M  END
$$$$

 Created by Python create_sdf_string function

 28 30  0  0  0  0  0  0  0  0999 V2000
   11.4592   11.2893   18.7941 C   0  0  0  0  0  0  0  0  0  0  0  0
    3.4202    7.9009   20.3866 C   0  0  0  0  0  0  0  0  0  0  0  0
   13.5280   10.3522   19.3586 C   0  0  0  0  0  0  0  0  0  0  0  0
    9.6923    5.6468   22.7891 C   0  0  0  0  0  0  0  0  0  0  0  0
   11.7756   10.2554   20.8841 N   0  0  0  0  0  0  0  0  0  0  0  0
    8.9876   11.9370   19.8757 O   0  0  0  0  0  0  0  0  0  0  0  0
    6.0167    8.4478   21.1089 C   0  0  0  0  0  0  0  0  0  0  0  0
   11.0002   10.8890   20.0262 C   0  0  0  0  0  0  0  0  0  0  0  0
    2.1721    7.7393   20.0315 O   0  0  0  0  0  0  0  0  0  0  0  0
    9.1107   10.3880   21.3769 N   0  0  0  0  0  0  0  0  0  0  0  0
    3.9102    9.2008   20.3124 C   0  0  0  0  0  0  0  0  0  0  0  0
   12.7292   10.9960   18.4597 C   0  0  0  0  0  0  0  0  0  0  0  0
    9.3798    6.6793   23.6625 C   0  0  0  0  0  0  0  0  0  0  0  0
   14.7425   10.0739   19.0802 O   0  0  0  0  0  0  0  0  0  0  0  0
    5.1894    9.4673   20.7118 C   0  0  0  0  0  0  0  0  0  0  0  0
    7.3773    8.8224   21.4870 C   0  0  0  0  0  0  0  0  0  0  0  0
    8.4391    6.6439   21.0235 C   0  0  0  0  0  0  0  0  0  0  0  0
    9.6494   11.1353   20.4167 C   0  0  0  0  0  0  0  0  0  0  0  0
    8.1431    7.6829   21.9046 C   0  0  0  0  0  0  0  0  0  0  0  0
    7.7796   10.1314   21.5115 N   0  0  0  0  0  0  0  0  0  0  0  0
    9.2768    5.6183   21.4437 C   0  0  0  0  0  0  0  0  0  0  0  0
    8.6315    7.7322   23.1768 C   0  0  0  0  0  0  0  0  0  0  0  0
   13.0537    9.9821   20.5781 C   0  0  0  0  0  0  0  0  0  0  0  0
   10.3850    4.6575   23.2386 O   0  0  0  0  0  0  0  0  0  0  0  0
    4.2069    6.8450   20.7994 C   0  0  0  0  0  0  0  0  0  0  0  0
    3.0726   10.1043   19.8522 O   0  0  0  0  0  0  0  0  0  0  0  0
    5.5057    7.1196   21.1155 C   0  0  0  0  0  0  0  0  0  0  0  0
    7.0367   11.0229   21.9948 O   0  0  0  0  0  0  0  0  0  0  0  0
  1  8  4  0
  1 12  4  0
  2  9  1  0
  2 11  4  0
  2 25  4  0
  3 12  4  0
  3 14  1  0
  3 23  4  0
  4 13  4  0
  4 21  4  0
  4 24  1  0
  5  8  4  0
  5 23  4  0
  6 18  2  0
  7 15  4  0
  7 16  1  0
  7 27  4  0
  8 18  1  0
 10 18  1  0
 10 20  1  0
 11 15  4  0
 11 26  1  0
 13 22  4  0
 16 19  1  0
 16 20  2  0
 17 19  4  0
 17 21  4  0
 19 22  4  0
 20 28  1  0
 25 27  4  0
M  END
$$$$

 Created by Python create_sdf_string function

 28 30  0  0  0  0  0  0  0  0999 V2000
   11.4592   11.2893   18.7941 C   0  0  0  0  0  0  0  0  0  0  0  0
    3.4202    7.9009   20.3866 C   0  0  0  0  0  0  0  0  0  0  0  0
   13.5280   10.3522   19.3586 C   0  0  0  0  0  0  0  0  0  0  0  0
    9.6923    5.6468   22.7891 C   0  0  0  0  0  0  0  0  0  0  0  0
   11.7756   10.2554   20.8841 N   0  0  0  0  0  0  0  0  0  0  0  0
    8.9876   11.9370   19.8757 O   0  0  0  0  0  0  0  0  0  0  0  0
    6.0167    8.4478   21.1089 C   0  0  0  0  0  0  0  0  0  0  0  0
   11.0002   10.8890   20.0262 C   0  0  0  0  0  0  0  0  0  0  0  0
    2.1721    7.7393   20.0315 O   0  0  0  0  0  0  0  0  0  0  0  0
    9.1107   10.3880   21.3769 N   0  0  0  0  0  0  0  0  0  0  0  0
    3.9102    9.2008   20.3124 C   0  0  0  0  0  0  0  0  0  0  0  0
   12.7292   10.9960   18.4597 C   0  0  0  0  0  0  0  0  0  0  0  0
    9.3798    6.6793   23.6625 C   0  0  0  0  0  0  0  0  0  0  0  0
   14.7425   10.0739   19.0802 O   0  0  0  0  0  0  0  0  0  0  0  0
    5.1894    9.4673   20.7118 C   0  0  0  0  0  0  0  0  0  0  0  0
    7.3773    8.8224   21.4870 C   0  0  0  0  0  0  0  0  0  0  0  0
    8.4391    6.6439   21.0235 C   0  0  0  0  0  0  0  0  0  0  0  0
    9.6494   11.1353   20.4167 C   0  0  0  0  0  0  0  0  0  0  0  0
    8.1431    7.6829   21.9046 C   0  0  0  0  0  0  0  0  0  0  0  0
    7.7796   10.1314   21.5115 N   0  0  0  0  0  0  0  0  0  0  0  0
    9.2768    5.6183   21.4437 C   0  0  0  0  0  0  0  0  0  0  0  0
    8.6315    7.7322   23.1768 C   0  0  0  0  0  0  0  0  0  0  0  0
   13.0537    9.9821   20.5781 C   0  0  0  0  0  0  0  0  0  0  0  0
   10.3850    4.6575   23.2386 O   0  0  0  0  0  0  0  0  0  0  0  0
    4.2069    6.8450   20.7994 C   0  0  0  0  0  0  0  0  0  0  0  0
    3.0726   10.1043   19.8522 O   0  0  0  0  0  0  0  0  0  0  0  0
    5.5057    7.1196   21.1155 C   0  0  0  0  0  0  0  0  0  0  0  0
    7.0367   11.0229   21.9948 O   0  0  0  0  0  0  0  0  0  0  0  0
  1  8  4  0
  1 12  4  0
  2  9  1  0
  2 11  4  0
  2 25  4  0
  3 12  4  0
  3 14  1  0
  3 23  4  0
  4 13  4  0
  4 21  4  0
  4 24  1  0
  5  8  4  0
  5 23  4  0
  6 18  2  0
  7 15  4  0
  7 16  1  0
  7 27  4  0
  8 18  1  0
 10 18  1  0
 10 20  1  0
 11 15  4  0
 11 26  1  0
 13 22  4  0
 16 19  1  0
 16 20  2  0
 17 19  4  0
 17 21  4  0
 19 22  4  0
 20 28  1  0
 25 27  4  0
M  END
$$$$

 Created by Python create_sdf_string function

 28 30  0  0  0  0  0  0  0  0999 V2000
   11.4592   11.2893   18.7941 C   0  0  0  0  0  0  0  0  0  0  0  0
    3.4202    7.9009   20.3866 C   0  0  0  0  0  0  0  0  0  0  0  0
   13.5280   10.3522   19.3586 C   0  0  0  0  0  0  0  0  0  0  0  0
    9.6923    5.6468   22.7891 C   0  0  0  0  0  0  0  0  0  0  0  0
   11.7756   10.2554   20.8841 N   0  0  0  0  0  0  0  0  0  0  0  0
    8.9876   11.9370   19.8757 O   0  0  0  0  0  0  0  0  0  0  0  0
    6.0167    8.4478   21.1089 C   0  0  0  0  0  0  0  0  0  0  0  0
   11.0002   10.8890   20.0262 C   0  0  0  0  0  0  0  0  0  0  0  0
    2.1721    7.7393   20.0315 O   0  0  0  0  0  0  0  0  0  0  0  0
    9.1107   10.3880   21.3769 N   0  0  0  0  0  0  0  0  0  0  0  0
    3.9102    9.2008   20.3124 C   0  0  0  0  0  0  0  0  0  0  0  0
   12.7292   10.9960   18.4597 C   0  0  0  0  0  0  0  0  0  0  0  0
    9.3798    6.6793   23.6625 C   0  0  0  0  0  0  0  0  0  0  0  0
   14.7425   10.0739   19.0802 O   0  0  0  0  0  0  0  0  0  0  0  0
    5.1894    9.4673   20.7118 C   0  0  0  0  0  0  0  0  0  0  0  0
    7.3773    8.8224   21.4870 C   0  0  0  0  0  0  0  0  0  0  0  0
    8.4391    6.6439   21.0235 C   0  0  0  0  0  0  0  0  0  0  0  0
    9.6494   11.1353   20.4167 C   0  0  0  0  0  0  0  0  0  0  0  0
    8.1431    7.6829   21.9046 C   0  0  0  0  0  0  0  0  0  0  0  0
    7.7796   10.1314   21.5115 N   0  0  0  0  0  0  0  0  0  0  0  0
    9.2768    5.6183   21.4437 C   0  0  0  0  0  0  0  0  0  0  0  0
    8.6315    7.7322   23.1768 C   0  0  0  0  0  0  0  0  0  0  0  0
   13.0537    9.9821   20.5781 C   0  0  0  0  0  0  0  0  0  0  0  0
   10.3850    4.6575   23.2386 O   0  0  0  0  0  0  0  0  0  0  0  0
    4.2069    6.8450   20.7994 C   0  0  0  0  0  0  0  0  0  0  0  0
    3.0726   10.1043   19.8522 O   0  0  0  0  0  0  0  0  0  0  0  0
    5.5057    7.1196   21.1155 C   0  0  0  0  0  0  0  0  0  0  0  0
    7.0367   11.0229   21.9948 O   0  0  0  0  0  0  0  0  0  0  0  0
  1  8  4  0
  1 12  4  0
  2  9  1  0
  2 11  4  0
  2 25  4  0
  3 12  4  0
  3 14  1  0
  3 23  4  0
  4 13  4  0
  4 21  4  0
  4 24  1  0
  5  8  4  0
  5 23  4  0
  6 18  2  0
  7 15  4  0
  7 16  1  0
  7 27  4  0
  8 18  1  0
 10 18  1  0
 10 20  1  0
 11 15  4  0
 11 26  1  0
 13 22  4  0
 16 19  1  0
 16 20  2  0
 17 19  4  0
 17 21  4  0
 19 22  4  0
 20 28  1  0
 25 27  4  0
M  END
$$$$

 Created by Python create_sdf_string function

 28 30  0  0  0  0  0  0  0  0999 V2000
   11.4592   11.2893   18.7941 C   0  0  0  0  0  0  0  0  0  0  0  0
    3.4202    7.9009   20.3866 C   0  0  0  0  0  0  0  0  0  0  0  0
   13.5280   10.3522   19.3586 C   0  0  0  0  0  0  0  0  0  0  0  0
    9.6923    5.6468   22.7891 C   0  0  0  0  0  0  0  0  0  0  0  0
   11.7756   10.2554   20.8841 N   0  0  0  0  0  0  0  0  0  0  0  0
    8.9876   11.9370   19.8757 O   0  0  0  0  0  0  0  0  0  0  0  0
    6.0167    8.4478   21.1089 C   0  0  0  0  0  0  0  0  0  0  0  0
   11.0002   10.8890   20.0262 C   0  0  0  0  0  0  0  0  0  0  0  0
    2.1721    7.7393   20.0315 O   0  0  0  0  0  0  0  0  0  0  0  0
    9.1107   10.3880   21.3769 N   0  0  0  0  0  0  0  0  0  0  0  0
    3.9102    9.2008   20.3124 C   0  0  0  0  0  0  0  0  0  0  0  0
   12.7292   10.9960   18.4597 C   0  0  0  0  0  0  0  0  0  0  0  0
    9.3798    6.6793   23.6625 C   0  0  0  0  0  0  0  0  0  0  0  0
   14.7425   10.0739   19.0802 O   0  0  0  0  0  0  0  0  0  0  0  0
    5.1894    9.4673   20.7118 C   0  0  0  0  0  0  0  0  0  0  0  0
    7.3773    8.8224   21.4870 C   0  0  0  0  0  0  0  0  0  0  0  0
    8.4391    6.6439   21.0235 C   0  0  0  0  0  0  0  0  0  0  0  0
    9.6494   11.1353   20.4167 C   0  0  0  0  0  0  0  0  0  0  0  0
    8.1431    7.6829   21.9046 C   0  0  0  0  0  0  0  0  0  0  0  0
    7.7796   10.1314   21.5115 N   0  0  0  0  0  0  0  0  0  0  0  0
    9.2768    5.6183   21.4437 C   0  0  0  0  0  0  0  0  0  0  0  0
    8.6315    7.7322   23.1768 C   0  0  0  0  0  0  0  0  0  0  0  0
   13.0537    9.9821   20.5781 C   0  0  0  0  0  0  0  0  0  0  0  0
   10.3850    4.6575   23.2386 O   0  0  0  0  0  0  0  0  0  0  0  0
    4.2069    6.8450   20.7994 C   0  0  0  0  0  0  0  0  0  0  0  0
    3.0726   10.1043   19.8522 O   0  0  0  0  0  0  0  0  0  0  0  0
    5.5057    7.1196   21.1155 C   0  0  0  0  0  0  0  0  0  0  0  0
    7.0367   11.0229   21.9948 O   0  0  0  0  0  0  0  0  0  0  0  0
  1  8  4  0
  1 12  4  0
  2  9  1  0
  2 11  4  0
  2 25  4  0
  3 12  4  0
  3 14  1  0
  3 23  4  0
  4 13  4  0
  4 21  4  0
  4 24  1  0
  5  8  4  0
  5 23  4  0
  6 18  2  0
  7 15  4  0
  7 16  1  0
  7 27  4  0
  8 18  1  0
 10 18  1  0
 10 20  1  0
 11 15  4  0
 11 26  1  0
 13 22  4  0
 16 19  1  0
 16 20  2  0
 17 19  4  0
 17 21  4  0
 19 22  4  0
 20 28  1  0
 25 27  4  0
M  END
$$$$

 Created by Python create_sdf_string function

 28 30  0  0  0  0  0  0  0  0999 V2000
   11.4592   11.2893   18.7941 C   0  0  0  0  0  0  0  0  0  0  0  0
    3.4202    7.9009   20.3866 C   0  0  0  0  0  0  0  0  0  0  0  0
   13.5280   10.3522   19.3586 C   0  0  0  0  0  0  0  0  0  0  0  0
    9.6923    5.6468   22.7891 C   0  0  0  0  0  0  0  0  0  0  0  0
   11.7756   10.2554   20.8841 N   0  0  0  0  0  0  0  0  0  0  0  0
    8.9876   11.9370   19.8757 O   0  0  0  0  0  0  0  0  0  0  0  0
    6.0167    8.4478   21.1089 C   0  0  0  0  0  0  0  0  0  0  0  0
   11.0002   10.8890   20.0262 C   0  0  0  0  0  0  0  0  0  0  0  0
    2.1721    7.7393   20.0315 O   0  0  0  0  0  0  0  0  0  0  0  0
    9.1107   10.3880   21.3769 N   0  0  0  0  0  0  0  0  0  0  0  0
    3.9102    9.2008   20.3124 C   0  0  0  0  0  0  0  0  0  0  0  0
   12.7292   10.9960   18.4597 C   0  0  0  0  0  0  0  0  0  0  0  0
    9.3798    6.6793   23.6625 C   0  0  0  0  0  0  0  0  0  0  0  0
   14.7425   10.0739   19.0802 O   0  0  0  0  0  0  0  0  0  0  0  0
    5.1894    9.4673   20.7118 C   0  0  0  0  0  0  0  0  0  0  0  0
    7.3773    8.8224   21.4870 C   0  0  0  0  0  0  0  0  0  0  0  0
    8.4391    6.6439   21.0235 C   0  0  0  0  0  0  0  0  0  0  0  0
    9.6494   11.1353   20.4167 C   0  0  0  0  0  0  0  0  0  0  0  0
    8.1431    7.6829   21.9046 C   0  0  0  0  0  0  0  0  0  0  0  0
    7.7796   10.1314   21.5115 N   0  0  0  0  0  0  0  0  0  0  0  0
    9.2768    5.6183   21.4437 C   0  0  0  0  0  0  0  0  0  0  0  0
    8.6315    7.7322   23.1768 C   0  0  0  0  0  0  0  0  0  0  0  0
   13.0537    9.9821   20.5781 C   0  0  0  0  0  0  0  0  0  0  0  0
   10.3850    4.6575   23.2386 O   0  0  0  0  0  0  0  0  0  0  0  0
    4.2069    6.8450   20.7994 C   0  0  0  0  0  0  0  0  0  0  0  0
    3.0726   10.1043   19.8522 O   0  0  0  0  0  0  0  0  0  0  0  0
    5.5057    7.1196   21.1155 C   0  0  0  0  0  0  0  0  0  0  0  0
    7.0367   11.0229   21.9948 O   0  0  0  0  0  0  0  0  0  0  0  0
  1  8  4  0
  1 12  4  0
  2  9  1  0
  2 11  4  0
  2 25  4  0
  3 12  4  0
  3 14  1  0
  3 23  4  0
  4 13  4  0
  4 21  4  0
  4 24  1  0
  5  8  4  0
  5 23  4  0
  6 18  2  0
  7 15  4  0
  7 16  1  0
  7 27  4  0
  8 18  1  0
 10 18  1  0
 10 20  1  0
 11 15  4  0
 11 26  1  0
 13 22  4  0
 16 19  1  0
 16 20  2  0
 17 19  4  0
 17 21  4  0
 19 22  4  0
 20 28  1  0
 25 27  4  0
M  END
$$$$

 Created by Python create_sdf_string function

 28 30  0  0  0  0  0  0  0  0999 V2000
   11.4592   11.2893   18.7941 C   0  0  0  0  0  0  0  0  0  0  0  0
    3.4202    7.9009   20.3866 C   0  0  0  0  0  0  0  0  0  0  0  0
   13.5280   10.3522   19.3586 C   0  0  0  0  0  0  0  0  0  0  0  0
    9.6923    5.6468   22.7891 C   0  0  0  0  0  0  0  0  0  0  0  0
   11.7756   10.2554   20.8841 N   0  0  0  0  0  0  0  0  0  0  0  0
    8.9876   11.9370   19.8757 O   0  0  0  0  0  0  0  0  0  0  0  0
    6.0167    8.4478   21.1089 C   0  0  0  0  0  0  0  0  0  0  0  0
   11.0002   10.8890   20.0262 C   0  0  0  0  0  0  0  0  0  0  0  0
    2.1721    7.7393   20.0315 O   0  0  0  0  0  0  0  0  0  0  0  0
    9.1107   10.3880   21.3769 N   0  0  0  0  0  0  0  0  0  0  0  0
    3.9102    9.2008   20.3124 C   0  0  0  0  0  0  0  0  0  0  0  0
   12.7292   10.9960   18.4597 C   0  0  0  0  0  0  0  0  0  0  0  0
    9.3798    6.6793   23.6625 C   0  0  0  0  0  0  0  0  0  0  0  0
   14.7425   10.0739   19.0802 O   0  0  0  0  0  0  0  0  0  0  0  0
    5.1894    9.4673   20.7118 C   0  0  0  0  0  0  0  0  0  0  0  0
    7.3773    8.8224   21.4870 C   0  0  0  0  0  0  0  0  0  0  0  0
    8.4391    6.6439   21.0235 C   0  0  0  0  0  0  0  0  0  0  0  0
    9.6494   11.1353   20.4167 C   0  0  0  0  0  0  0  0  0  0  0  0
    8.1431    7.6829   21.9046 C   0  0  0  0  0  0  0  0  0  0  0  0
    7.7796   10.1314   21.5115 N   0  0  0  0  0  0  0  0  0  0  0  0
    9.2768    5.6183   21.4437 C   0  0  0  0  0  0  0  0  0  0  0  0
    8.6315    7.7322   23.1768 C   0  0  0  0  0  0  0  0  0  0  0  0
   13.0537    9.9821   20.5781 C   0  0  0  0  0  0  0  0  0  0  0  0
   10.3850    4.6575   23.2386 O   0  0  0  0  0  0  0  0  0  0  0  0
    4.2069    6.8450   20.7994 C   0  0  0  0  0  0  0  0  0  0  0  0
    3.0726   10.1043   19.8522 O   0  0  0  0  0  0  0  0  0  0  0  0
    5.5057    7.1196   21.1155 C   0  0  0  0  0  0  0  0  0  0  0  0
    7.0367   11.0229   21.9948 O   0  0  0  0  0  0  0  0  0  0  0  0
  1  8  4  0
  1 12  4  0
  2  9  1  0
  2 11  4  0
  2 25  4  0
  3 12  4  0
  3 14  1  0
  3 23  4  0
  4 13  4  0
  4 21  4  0
  4 24  1  0
  5  8  4  0
  5 23  4  0
  6 18  2  0
  7 15  4  0
  7 16  1  0
  7 27  4  0
  8 18  1  0
 10 18  1  0
 10 20  1  0
 11 15  4  0
 11 26  1  0
 13 22  4  0
 16 19  1  0
 16 20  2  0
 17 19  4  0
 17 21  4  0
 19 22  4  0
 20 28  1  0
 25 27  4  0
M  END
$$$$

 Created by Python create_sdf_string function

 28 30  0  0  0  0  0  0  0  0999 V2000
   11.4592   11.2893   18.7941 C   0  0  0  0  0  0  0  0  0  0  0  0
    3.4202    7.9009   20.3866 C   0  0  0  0  0  0  0  0  0  0  0  0
   13.5280   10.3522   19.3586 C   0  0  0  0  0  0  0  0  0  0  0  0
    9.6923    5.6468   22.7891 C   0  0  0  0  0  0  0  0  0  0  0  0
   11.7756   10.2554   20.8841 N   0  0  0  0  0  0  0  0  0  0  0  0
    8.9876   11.9370   19.8757 O   0  0  0  0  0  0  0  0  0  0  0  0
    6.0167    8.4478   21.1089 C   0  0  0  0  0  0  0  0  0  0  0  0
   11.0002   10.8890   20.0262 C   0  0  0  0  0  0  0  0  0  0  0  0
    2.1721    7.7393   20.0315 O   0  0  0  0  0  0  0  0  0  0  0  0
    9.1107   10.3880   21.3769 N   0  0  0  0  0  0  0  0  0  0  0  0
    3.9102    9.2008   20.3124 C   0  0  0  0  0  0  0  0  0  0  0  0
   12.7292   10.9960   18.4597 C   0  0  0  0  0  0  0  0  0  0  0  0
    9.3798    6.6793   23.6625 C   0  0  0  0  0  0  0  0  0  0  0  0
   14.7425   10.0739   19.0802 O   0  0  0  0  0  0  0  0  0  0  0  0
    5.1894    9.4673   20.7118 C   0  0  0  0  0  0  0  0  0  0  0  0
    7.3773    8.8224   21.4870 C   0  0  0  0  0  0  0  0  0  0  0  0
    8.4391    6.6439   21.0235 C   0  0  0  0  0  0  0  0  0  0  0  0
    9.6494   11.1353   20.4167 C   0  0  0  0  0  0  0  0  0  0  0  0
    8.1431    7.6829   21.9046 C   0  0  0  0  0  0  0  0  0  0  0  0
    7.7796   10.1314   21.5115 N   0  0  0  0  0  0  0  0  0  0  0  0
    9.2768    5.6183   21.4437 C   0  0  0  0  0  0  0  0  0  0  0  0
    8.6315    7.7322   23.1768 C   0  0  0  0  0  0  0  0  0  0  0  0
   13.0537    9.9821   20.5781 C   0  0  0  0  0  0  0  0  0  0  0  0
   10.3850    4.6575   23.2386 O   0  0  0  0  0  0  0  0  0  0  0  0
    4.2069    6.8450   20.7994 C   0  0  0  0  0  0  0  0  0  0  0  0
    3.0726   10.1043   19.8522 O   0  0  0  0  0  0  0  0  0  0  0  0
    5.5057    7.1196   21.1155 C   0  0  0  0  0  0  0  0  0  0  0  0
    7.0367   11.0229   21.9948 O   0  0  0  0  0  0  0  0  0  0  0  0
  1  8  4  0
  1 12  4  0
  2  9  1  0
  2 11  4  0
  2 25  4  0
  3 12  4  0
  3 14  1  0
  3 23  4  0
  4 13  4  0
  4 21  4  0
  4 24  1  0
  5  8  4  0
  5 23  4  0
  6 18  2  0
  7 15  4  0
  7 16  1  0
  7 27  4  0
  8 18  1  0
 10 18  1  0
 10 20  1  0
 11 15  4  0
 11 26  1  0
 13 22  4  0
 16 19  1  0
 16 20  2  0
 17 19  4  0
 17 21  4  0
 19 22  4  0
 20 28  1  0
 25 27  4  0
M  END
$$$$

 Created by Python create_sdf_string function

 28 30  0  0  0  0  0  0  0  0999 V2000
   11.4592   11.2893   18.7941 C   0  0  0  0  0  0  0  0  0  0  0  0
    3.4202    7.9009   20.3866 C   0  0  0  0  0  0  0  0  0  0  0  0
   13.5280   10.3522   19.3586 C   0  0  0  0  0  0  0  0  0  0  0  0
    9.6923    5.6468   22.7891 C   0  0  0  0  0  0  0  0  0  0  0  0
   11.7756   10.2554   20.8841 N   0  0  0  0  0  0  0  0  0  0  0  0
    8.9876   11.9370   19.8757 O   0  0  0  0  0  0  0  0  0  0  0  0
    6.0167    8.4478   21.1089 C   0  0  0  0  0  0  0  0  0  0  0  0
   11.0002   10.8890   20.0262 C   0  0  0  0  0  0  0  0  0  0  0  0
    2.1721    7.7393   20.0315 O   0  0  0  0  0  0  0  0  0  0  0  0
    9.1107   10.3880   21.3769 N   0  0  0  0  0  0  0  0  0  0  0  0
    3.9102    9.2008   20.3124 C   0  0  0  0  0  0  0  0  0  0  0  0
   12.7292   10.9960   18.4597 C   0  0  0  0  0  0  0  0  0  0  0  0
    9.3798    6.6793   23.6625 C   0  0  0  0  0  0  0  0  0  0  0  0
   14.7425   10.0739   19.0802 O   0  0  0  0  0  0  0  0  0  0  0  0
    5.1894    9.4673   20.7118 C   0  0  0  0  0  0  0  0  0  0  0  0
    7.3773    8.8224   21.4870 C   0  0  0  0  0  0  0  0  0  0  0  0
    8.4391    6.6439   21.0235 C   0  0  0  0  0  0  0  0  0  0  0  0
    9.6494   11.1353   20.4167 C   0  0  0  0  0  0  0  0  0  0  0  0
    8.1431    7.6829   21.9046 C   0  0  0  0  0  0  0  0  0  0  0  0
    7.7796   10.1314   21.5115 N   0  0  0  0  0  0  0  0  0  0  0  0
    9.2768    5.6183   21.4437 C   0  0  0  0  0  0  0  0  0  0  0  0
    8.6315    7.7322   23.1768 C   0  0  0  0  0  0  0  0  0  0  0  0
   13.0537    9.9821   20.5781 C   0  0  0  0  0  0  0  0  0  0  0  0
   10.3850    4.6575   23.2386 O   0  0  0  0  0  0  0  0  0  0  0  0
    4.2069    6.8450   20.7994 C   0  0  0  0  0  0  0  0  0  0  0  0
    3.0726   10.1043   19.8522 O   0  0  0  0  0  0  0  0  0  0  0  0
    5.5057    7.1196   21.1155 C   0  0  0  0  0  0  0  0  0  0  0  0
    7.0367   11.0229   21.9948 O   0  0  0  0  0  0  0  0  0  0  0  0
  1  8  4  0
  1 12  4  0
  2  9  1  0
  2 11  4  0
  2 25  4  0
  3 12  4  0
  3 14  1  0
  3 23  4  0
  4 13  4  0
  4 21  4  0
  4 24  1  0
  5  8  4  0
  5 23  4  0
  6 18  2  0
  7 15  4  0
  7 16  1  0
  7 27  4  0
  8 18  1  0
 10 18  1  0
 10 20  1  0
 11 15  4  0
 11 26  1  0
 13 22  4  0
 16 19  1  0
 16 20  2  0
 17 19  4  0
 17 21  4  0
 19 22  4  0
 20 28  1  0
 25 27  4  0
M  END
$$$$

 Created by Python create_sdf_string function

 28 30  0  0  0  0  0  0  0  0999 V2000
   11.4592   11.2893   18.7941 C   0  0  0  0  0  0  0  0  0  0  0  0
    3.4202    7.9009   20.3866 C   0  0  0  0  0  0  0  0  0  0  0  0
   13.5280   10.3522   19.3586 C   0  0  0  0  0  0  0  0  0  0  0  0
    9.6923    5.6468   22.7891 C   0  0  0  0  0  0  0  0  0  0  0  0
   11.7756   10.2554   20.8841 N   0  0  0  0  0  0  0  0  0  0  0  0
    8.9876   11.9370   19.8757 O   0  0  0  0  0  0  0  0  0  0  0  0
    6.0167    8.4478   21.1089 C   0  0  0  0  0  0  0  0  0  0  0  0
   11.0002   10.8890   20.0262 C   0  0  0  0  0  0  0  0  0  0  0  0
    2.1721    7.7393   20.0315 O   0  0  0  0  0  0  0  0  0  0  0  0
    9.1107   10.3880   21.3769 N   0  0  0  0  0  0  0  0  0  0  0  0
    3.9102    9.2008   20.3124 C   0  0  0  0  0  0  0  0  0  0  0  0
   12.7292   10.9960   18.4597 C   0  0  0  0  0  0  0  0  0  0  0  0
    9.3798    6.6793   23.6625 C   0  0  0  0  0  0  0  0  0  0  0  0
   14.7425   10.0739   19.0802 O   0  0  0  0  0  0  0  0  0  0  0  0
    5.1894    9.4673   20.7118 C   0  0  0  0  0  0  0  0  0  0  0  0
    7.3773    8.8224   21.4870 C   0  0  0  0  0  0  0  0  0  0  0  0
    8.4391    6.6439   21.0235 C   0  0  0  0  0  0  0  0  0  0  0  0
    9.6494   11.1353   20.4167 C   0  0  0  0  0  0  0  0  0  0  0  0
    8.1431    7.6829   21.9046 C   0  0  0  0  0  0  0  0  0  0  0  0
    7.7796   10.1314   21.5115 N   0  0  0  0  0  0  0  0  0  0  0  0
    9.2768    5.6183   21.4437 C   0  0  0  0  0  0  0  0  0  0  0  0
    8.6315    7.7322   23.1768 C   0  0  0  0  0  0  0  0  0  0  0  0
   13.0537    9.9821   20.5781 C   0  0  0  0  0  0  0  0  0  0  0  0
   10.3850    4.6575   23.2386 O   0  0  0  0  0  0  0  0  0  0  0  0
    4.2069    6.8450   20.7994 C   0  0  0  0  0  0  0  0  0  0  0  0
    3.0726   10.1043   19.8522 O   0  0  0  0  0  0  0  0  0  0  0  0
    5.5057    7.1196   21.1155 C   0  0  0  0  0  0  0  0  0  0  0  0
    7.0367   11.0229   21.9948 O   0  0  0  0  0  0  0  0  0  0  0  0
  1  8  4  0
  1 12  4  0
  2  9  1  0
  2 11  4  0
  2 25  4  0
  3 12  4  0
  3 14  1  0
  3 23  4  0
  4 13  4  0
  4 21  4  0
  4 24  1  0
  5  8  4  0
  5 23  4  0
  6 18  2  0
  7 15  4  0
  7 16  1  0
  7 27  4  0
  8 18  1  0
 10 18  1  0
 10 20  1  0
 11 15  4  0
 11 26  1  0
 13 22  4  0
 16 19  1  0
 16 20  2  0
 17 19  4  0
 17 21  4  0
 19 22  4  0
 20 28  1  0
 25 27  4  0
M  END
$$$$

 Created by Python create_sdf_string function

 28 30  0  0  0  0  0  0  0  0999 V2000
   11.4592   11.2893   18.7941 C   0  0  0  0  0  0  0  0  0  0  0  0
    3.4202    7.9009   20.3866 C   0  0  0  0  0  0  0  0  0  0  0  0
   13.5280   10.3522   19.3586 C   0  0  0  0  0  0  0  0  0  0  0  0
    9.6923    5.6468   22.7891 C   0  0  0  0  0  0  0  0  0  0  0  0
   11.7756   10.2554   20.8841 N   0  0  0  0  0  0  0  0  0  0  0  0
    8.9876   11.9370   19.8757 O   0  0  0  0  0  0  0  0  0  0  0  0
    6.0167    8.4478   21.1089 C   0  0  0  0  0  0  0  0  0  0  0  0
   11.0002   10.8890   20.0262 C   0  0  0  0  0  0  0  0  0  0  0  0
    2.1721    7.7393   20.0315 O   0  0  0  0  0  0  0  0  0  0  0  0
    9.1107   10.3880   21.3769 N   0  0  0  0  0  0  0  0  0  0  0  0
    3.9102    9.2008   20.3124 C   0  0  0  0  0  0  0  0  0  0  0  0
   12.7292   10.9960   18.4597 C   0  0  0  0  0  0  0  0  0  0  0  0
    9.3798    6.6793   23.6625 C   0  0  0  0  0  0  0  0  0  0  0  0
   14.7425   10.0739   19.0802 O   0  0  0  0  0  0  0  0  0  0  0  0
    5.1894    9.4673   20.7118 C   0  0  0  0  0  0  0  0  0  0  0  0
    7.3773    8.8224   21.4870 C   0  0  0  0  0  0  0  0  0  0  0  0
    8.4391    6.6439   21.0235 C   0  0  0  0  0  0  0  0  0  0  0  0
    9.6494   11.1353   20.4167 C   0  0  0  0  0  0  0  0  0  0  0  0
    8.1431    7.6829   21.9046 C   0  0  0  0  0  0  0  0  0  0  0  0
    7.7796   10.1314   21.5115 N   0  0  0  0  0  0  0  0  0  0  0  0
    9.2768    5.6183   21.4437 C   0  0  0  0  0  0  0  0  0  0  0  0
    8.6315    7.7322   23.1768 C   0  0  0  0  0  0  0  0  0  0  0  0
   13.0537    9.9821   20.5781 C   0  0  0  0  0  0  0  0  0  0  0  0
   10.3850    4.6575   23.2386 O   0  0  0  0  0  0  0  0  0  0  0  0
    4.2069    6.8450   20.7994 C   0  0  0  0  0  0  0  0  0  0  0  0
    3.0726   10.1043   19.8522 O   0  0  0  0  0  0  0  0  0  0  0  0
    5.5057    7.1196   21.1155 C   0  0  0  0  0  0  0  0  0  0  0  0
    7.0367   11.0229   21.9948 O   0  0  0  0  0  0  0  0  0  0  0  0
  1  8  4  0
  1 12  4  0
  2  9  1  0
  2 11  4  0
  2 25  4  0
  3 12  4  0
  3 14  1  0
  3 23  4  0
  4 13  4  0
  4 21  4  0
  4 24  1  0
  5  8  4  0
  5 23  4  0
  6 18  2  0
  7 15  4  0
  7 16  1  0
  7 27  4  0
  8 18  1  0
 10 18  1  0
 10 20  1  0
 11 15  4  0
 11 26  1  0
 13 22  4  0
 16 19  1  0
 16 20  2  0
 17 19  4  0
 17 21  4  0
 19 22  4  0
 20 28  1  0
 25 27  4  0
M  END
$$$$

 Created by Python create_sdf_string function

 28 30  0  0  0  0  0  0  0  0999 V2000
   11.4592   11.2893   18.7941 C   0  0  0  0  0  0  0  0  0  0  0  0
    3.4202    7.9009   20.3866 C   0  0  0  0  0  0  0  0  0  0  0  0
   13.5280   10.3522   19.3586 C   0  0  0  0  0  0  0  0  0  0  0  0
    9.6923    5.6468   22.7891 C   0  0  0  0  0  0  0  0  0  0  0  0
   11.7756   10.2554   20.8841 N   0  0  0  0  0  0  0  0  0  0  0  0
    8.9876   11.9370   19.8757 O   0  0  0  0  0  0  0  0  0  0  0  0
    6.0167    8.4478   21.1089 C   0  0  0  0  0  0  0  0  0  0  0  0
   11.0002   10.8890   20.0262 C   0  0  0  0  0  0  0  0  0  0  0  0
    2.1721    7.7393   20.0315 O   0  0  0  0  0  0  0  0  0  0  0  0
    9.1107   10.3880   21.3769 N   0  0  0  0  0  0  0  0  0  0  0  0
    3.9102    9.2008   20.3124 C   0  0  0  0  0  0  0  0  0  0  0  0
   12.7292   10.9960   18.4597 C   0  0  0  0  0  0  0  0  0  0  0  0
    9.3798    6.6793   23.6625 C   0  0  0  0  0  0  0  0  0  0  0  0
   14.7425   10.0739   19.0802 O   0  0  0  0  0  0  0  0  0  0  0  0
    5.1894    9.4673   20.7118 C   0  0  0  0  0  0  0  0  0  0  0  0
    7.3773    8.8224   21.4870 C   0  0  0  0  0  0  0  0  0  0  0  0
    8.4391    6.6439   21.0235 C   0  0  0  0  0  0  0  0  0  0  0  0
    9.6494   11.1353   20.4167 C   0  0  0  0  0  0  0  0  0  0  0  0
    8.1431    7.6829   21.9046 C   0  0  0  0  0  0  0  0  0  0  0  0
    7.7796   10.1314   21.5115 N   0  0  0  0  0  0  0  0  0  0  0  0
    9.2768    5.6183   21.4437 C   0  0  0  0  0  0  0  0  0  0  0  0
    8.6315    7.7322   23.1768 C   0  0  0  0  0  0  0  0  0  0  0  0
   13.0537    9.9821   20.5781 C   0  0  0  0  0  0  0  0  0  0  0  0
   10.3850    4.6575   23.2386 O   0  0  0  0  0  0  0  0  0  0  0  0
    4.2069    6.8450   20.7994 C   0  0  0  0  0  0  0  0  0  0  0  0
    3.0726   10.1043   19.8522 O   0  0  0  0  0  0  0  0  0  0  0  0
    5.5057    7.1196   21.1155 C   0  0  0  0  0  0  0  0  0  0  0  0
    7.0367   11.0229   21.9948 O   0  0  0  0  0  0  0  0  0  0  0  0
  1  8  4  0
  1 12  4  0
  2  9  1  0
  2 11  4  0
  2 25  4  0
  3 12  4  0
  3 14  1  0
  3 23  4  0
  4 13  4  0
  4 21  4  0
  4 24  1  0
  5  8  4  0
  5 23  4  0
  6 18  2  0
  7 15  4  0
  7 16  1  0
  7 27  4  0
  8 18  1  0
 10 18  1  0
 10 20  1  0
 11 15  4  0
 11 26  1  0
 13 22  4  0
 16 19  1  0
 16 20  2  0
 17 19  4  0
 17 21  4  0
 19 22  4  0
 20 28  1  0
 25 27  4  0
M  END
$$$$

 Created by Python create_sdf_string function

 28 30  0  0  0  0  0  0  0  0999 V2000
   11.4592   11.2893   18.7941 C   0  0  0  0  0  0  0  0  0  0  0  0
    3.4202    7.9009   20.3866 C   0  0  0  0  0  0  0  0  0  0  0  0
   13.5280   10.3522   19.3586 C   0  0  0  0  0  0  0  0  0  0  0  0
    9.6923    5.6468   22.7891 C   0  0  0  0  0  0  0  0  0  0  0  0
   11.7756   10.2554   20.8841 N   0  0  0  0  0  0  0  0  0  0  0  0
    8.9876   11.9370   19.8757 O   0  0  0  0  0  0  0  0  0  0  0  0
    6.0167    8.4478   21.1089 C   0  0  0  0  0  0  0  0  0  0  0  0
   11.0002   10.8890   20.0262 C   0  0  0  0  0  0  0  0  0  0  0  0
    2.1721    7.7393   20.0315 O   0  0  0  0  0  0  0  0  0  0  0  0
    9.1107   10.3880   21.3769 N   0  0  0  0  0  0  0  0  0  0  0  0
    3.9102    9.2008   20.3124 C   0  0  0  0  0  0  0  0  0  0  0  0
   12.7292   10.9960   18.4597 C   0  0  0  0  0  0  0  0  0  0  0  0
    9.3798    6.6793   23.6625 C   0  0  0  0  0  0  0  0  0  0  0  0
   14.7425   10.0739   19.0802 O   0  0  0  0  0  0  0  0  0  0  0  0
    5.1894    9.4673   20.7118 C   0  0  0  0  0  0  0  0  0  0  0  0
    7.3773    8.8224   21.4870 C   0  0  0  0  0  0  0  0  0  0  0  0
    8.4391    6.6439   21.0235 C   0  0  0  0  0  0  0  0  0  0  0  0
    9.6494   11.1353   20.4167 C   0  0  0  0  0  0  0  0  0  0  0  0
    8.1431    7.6829   21.9046 C   0  0  0  0  0  0  0  0  0  0  0  0
    7.7796   10.1314   21.5115 N   0  0  0  0  0  0  0  0  0  0  0  0
    9.2768    5.6183   21.4437 C   0  0  0  0  0  0  0  0  0  0  0  0
    8.6315    7.7322   23.1768 C   0  0  0  0  0  0  0  0  0  0  0  0
   13.0537    9.9821   20.5781 C   0  0  0  0  0  0  0  0  0  0  0  0
   10.3850    4.6575   23.2386 O   0  0  0  0  0  0  0  0  0  0  0  0
    4.2069    6.8450   20.7994 C   0  0  0  0  0  0  0  0  0  0  0  0
    3.0726   10.1043   19.8522 O   0  0  0  0  0  0  0  0  0  0  0  0
    5.5057    7.1196   21.1155 C   0  0  0  0  0  0  0  0  0  0  0  0
    7.0367   11.0229   21.9948 O   0  0  0  0  0  0  0  0  0  0  0  0
  1  8  4  0
  1 12  4  0
  2  9  1  0
  2 11  4  0
  2 25  4  0
  3 12  4  0
  3 14  1  0
  3 23  4  0
  4 13  4  0
  4 21  4  0
  4 24  1  0
  5  8  4  0
  5 23  4  0
  6 18  2  0
  7 15  4  0
  7 16  1  0
  7 27  4  0
  8 18  1  0
 10 18  1  0
 10 20  1  0
 11 15  4  0
 11 26  1  0
 13 22  4  0
 16 19  1  0
 16 20  2  0
 17 19  4  0
 17 21  4  0
 19 22  4  0
 20 28  1  0
 25 27  4  0
M  END
$$$$

 Created by Python create_sdf_string function

 28 30  0  0  0  0  0  0  0  0999 V2000
   11.4592   11.2893   18.7941 C   0  0  0  0  0  0  0  0  0  0  0  0
    3.4202    7.9009   20.3866 C   0  0  0  0  0  0  0  0  0  0  0  0
   13.5280   10.3522   19.3586 C   0  0  0  0  0  0  0  0  0  0  0  0
    9.6923    5.6468   22.7891 C   0  0  0  0  0  0  0  0  0  0  0  0
   11.7756   10.2554   20.8841 N   0  0  0  0  0  0  0  0  0  0  0  0
    8.9876   11.9370   19.8757 O   0  0  0  0  0  0  0  0  0  0  0  0
    6.0167    8.4478   21.1089 C   0  0  0  0  0  0  0  0  0  0  0  0
   11.0002   10.8890   20.0262 C   0  0  0  0  0  0  0  0  0  0  0  0
    2.1721    7.7393   20.0315 O   0  0  0  0  0  0  0  0  0  0  0  0
    9.1107   10.3880   21.3769 N   0  0  0  0  0  0  0  0  0  0  0  0
    3.9102    9.2008   20.3124 C   0  0  0  0  0  0  0  0  0  0  0  0
   12.7292   10.9960   18.4597 C   0  0  0  0  0  0  0  0  0  0  0  0
    9.3798    6.6793   23.6625 C   0  0  0  0  0  0  0  0  0  0  0  0
   14.7425   10.0739   19.0802 O   0  0  0  0  0  0  0  0  0  0  0  0
    5.1894    9.4673   20.7118 C   0  0  0  0  0  0  0  0  0  0  0  0
    7.3773    8.8224   21.4870 C   0  0  0  0  0  0  0  0  0  0  0  0
    8.4391    6.6439   21.0235 C   0  0  0  0  0  0  0  0  0  0  0  0
    9.6494   11.1353   20.4167 C   0  0  0  0  0  0  0  0  0  0  0  0
    8.1431    7.6829   21.9046 C   0  0  0  0  0  0  0  0  0  0  0  0
    7.7796   10.1314   21.5115 N   0  0  0  0  0  0  0  0  0  0  0  0
    9.2768    5.6183   21.4437 C   0  0  0  0  0  0  0  0  0  0  0  0
    8.6315    7.7322   23.1768 C   0  0  0  0  0  0  0  0  0  0  0  0
   13.0537    9.9821   20.5781 C   0  0  0  0  0  0  0  0  0  0  0  0
   10.3850    4.6575   23.2386 O   0  0  0  0  0  0  0  0  0  0  0  0
    4.2069    6.8450   20.7994 C   0  0  0  0  0  0  0  0  0  0  0  0
    3.0726   10.1043   19.8522 O   0  0  0  0  0  0  0  0  0  0  0  0
    5.5057    7.1196   21.1155 C   0  0  0  0  0  0  0  0  0  0  0  0
    7.0367   11.0229   21.9948 O   0  0  0  0  0  0  0  0  0  0  0  0
  1  8  4  0
  1 12  4  0
  2  9  1  0
  2 11  4  0
  2 25  4  0
  3 12  4  0
  3 14  1  0
  3 23  4  0
  4 13  4  0
  4 21  4  0
  4 24  1  0
  5  8  4  0
  5 23  4  0
  6 18  2  0
  7 15  4  0
  7 16  1  0
  7 27  4  0
  8 18  1  0
 10 18  1  0
 10 20  1  0
 11 15  4  0
 11 26  1  0
 13 22  4  0
 16 19  1  0
 16 20  2  0
 17 19  4  0
 17 21  4  0
 19 22  4  0
 20 28  1  0
 25 27  4  0
M  END
$$$$

 Created by Python create_sdf_string function

 28 30  0  0  0  0  0  0  0  0999 V2000
   11.4592   11.2893   18.7941 C   0  0  0  0  0  0  0  0  0  0  0  0
    3.4202    7.9009   20.3866 C   0  0  0  0  0  0  0  0  0  0  0  0
   13.5280   10.3522   19.3586 C   0  0  0  0  0  0  0  0  0  0  0  0
    9.6923    5.6468   22.7891 C   0  0  0  0  0  0  0  0  0  0  0  0
   11.7756   10.2554   20.8841 N   0  0  0  0  0  0  0  0  0  0  0  0
    8.9876   11.9370   19.8757 O   0  0  0  0  0  0  0  0  0  0  0  0
    6.0167    8.4478   21.1089 C   0  0  0  0  0  0  0  0  0  0  0  0
   11.0002   10.8890   20.0262 C   0  0  0  0  0  0  0  0  0  0  0  0
    2.1721    7.7393   20.0315 O   0  0  0  0  0  0  0  0  0  0  0  0
    9.1107   10.3880   21.3769 N   0  0  0  0  0  0  0  0  0  0  0  0
    3.9102    9.2008   20.3124 C   0  0  0  0  0  0  0  0  0  0  0  0
   12.7292   10.9960   18.4597 C   0  0  0  0  0  0  0  0  0  0  0  0
    9.3798    6.6793   23.6625 C   0  0  0  0  0  0  0  0  0  0  0  0
   14.7425   10.0739   19.0802 O   0  0  0  0  0  0  0  0  0  0  0  0
    5.1894    9.4673   20.7118 C   0  0  0  0  0  0  0  0  0  0  0  0
    7.3773    8.8224   21.4870 C   0  0  0  0  0  0  0  0  0  0  0  0
    8.4391    6.6439   21.0235 C   0  0  0  0  0  0  0  0  0  0  0  0
    9.6494   11.1353   20.4167 C   0  0  0  0  0  0  0  0  0  0  0  0
    8.1431    7.6829   21.9046 C   0  0  0  0  0  0  0  0  0  0  0  0
    7.7796   10.1314   21.5115 N   0  0  0  0  0  0  0  0  0  0  0  0
    9.2768    5.6183   21.4437 C   0  0  0  0  0  0  0  0  0  0  0  0
    8.6315    7.7322   23.1768 C   0  0  0  0  0  0  0  0  0  0  0  0
   13.0537    9.9821   20.5781 C   0  0  0  0  0  0  0  0  0  0  0  0
   10.3850    4.6575   23.2386 O   0  0  0  0  0  0  0  0  0  0  0  0
    4.2069    6.8450   20.7994 C   0  0  0  0  0  0  0  0  0  0  0  0
    3.0726   10.1043   19.8522 O   0  0  0  0  0  0  0  0  0  0  0  0
    5.5057    7.1196   21.1155 C   0  0  0  0  0  0  0  0  0  0  0  0
    7.0367   11.0229   21.9948 O   0  0  0  0  0  0  0  0  0  0  0  0
  1  8  4  0
  1 12  4  0
  2  9  1  0
  2 11  4  0
  2 25  4  0
  3 12  4  0
  3 14  1  0
  3 23  4  0
  4 13  4  0
  4 21  4  0
  4 24  1  0
  5  8  4  0
  5 23  4  0
  6 18  2  0
  7 15  4  0
  7 16  1  0
  7 27  4  0
  8 18  1  0
 10 18  1  0
 10 20  1  0
 11 15  4  0
 11 26  1  0
 13 22  4  0
 16 19  1  0
 16 20  2  0
 17 19  4  0
 17 21  4  0
 19 22  4  0
 20 28  1  0
 25 27  4  0
M  END
$$$$

 Created by Python create_sdf_string function

 28 30  0  0  0  0  0  0  0  0999 V2000
   11.4592   11.2893   18.7941 C   0  0  0  0  0  0  0  0  0  0  0  0
    3.4202    7.9009   20.3866 C   0  0  0  0  0  0  0  0  0  0  0  0
   13.5280   10.3522   19.3586 C   0  0  0  0  0  0  0  0  0  0  0  0
    9.6923    5.6468   22.7891 C   0  0  0  0  0  0  0  0  0  0  0  0
   11.7756   10.2554   20.8841 N   0  0  0  0  0  0  0  0  0  0  0  0
    8.9876   11.9370   19.8757 O   0  0  0  0  0  0  0  0  0  0  0  0
    6.0167    8.4478   21.1089 C   0  0  0  0  0  0  0  0  0  0  0  0
   11.0002   10.8890   20.0262 C   0  0  0  0  0  0  0  0  0  0  0  0
    2.1721    7.7393   20.0315 O   0  0  0  0  0  0  0  0  0  0  0  0
    9.1107   10.3880   21.3769 N   0  0  0  0  0  0  0  0  0  0  0  0
    3.9102    9.2008   20.3124 C   0  0  0  0  0  0  0  0  0  0  0  0
   12.7292   10.9960   18.4597 C   0  0  0  0  0  0  0  0  0  0  0  0
    9.3798    6.6793   23.6625 C   0  0  0  0  0  0  0  0  0  0  0  0
   14.7425   10.0739   19.0802 O   0  0  0  0  0  0  0  0  0  0  0  0
    5.1894    9.4673   20.7118 C   0  0  0  0  0  0  0  0  0  0  0  0
    7.3773    8.8224   21.4870 C   0  0  0  0  0  0  0  0  0  0  0  0
    8.4391    6.6439   21.0235 C   0  0  0  0  0  0  0  0  0  0  0  0
    9.6494   11.1353   20.4167 C   0  0  0  0  0  0  0  0  0  0  0  0
    8.1431    7.6829   21.9046 C   0  0  0  0  0  0  0  0  0  0  0  0
    7.7796   10.1314   21.5115 N   0  0  0  0  0  0  0  0  0  0  0  0
    9.2768    5.6183   21.4437 C   0  0  0  0  0  0  0  0  0  0  0  0
    8.6315    7.7322   23.1768 C   0  0  0  0  0  0  0  0  0  0  0  0
   13.0537    9.9821   20.5781 C   0  0  0  0  0  0  0  0  0  0  0  0
   10.3850    4.6575   23.2386 O   0  0  0  0  0  0  0  0  0  0  0  0
    4.2069    6.8450   20.7994 C   0  0  0  0  0  0  0  0  0  0  0  0
    3.0726   10.1043   19.8522 O   0  0  0  0  0  0  0  0  0  0  0  0
    5.5057    7.1196   21.1155 C   0  0  0  0  0  0  0  0  0  0  0  0
    7.0367   11.0229   21.9948 O   0  0  0  0  0  0  0  0  0  0  0  0
  1  8  4  0
  1 12  4  0
  2  9  1  0
  2 11  4  0
  2 25  4  0
  3 12  4  0
  3 14  1  0
  3 23  4  0
  4 13  4  0
  4 21  4  0
  4 24  1  0
  5  8  4  0
  5 23  4  0
  6 18  2  0
  7 15  4  0
  7 16  1  0
  7 27  4  0
  8 18  1  0
 10 18  1  0
 10 20  1  0
 11 15  4  0
 11 26  1  0
 13 22  4  0
 16 19  1  0
 16 20  2  0
 17 19  4  0
 17 21  4  0
 19 22  4  0
 20 28  1  0
 25 27  4  0
M  END
$$$$

 Created by Python create_sdf_string function

 28 30  0  0  0  0  0  0  0  0999 V2000
   11.4592   11.2893   18.7941 C   0  0  0  0  0  0  0  0  0  0  0  0
    3.4202    7.9009   20.3866 C   0  0  0  0  0  0  0  0  0  0  0  0
   13.5280   10.3522   19.3586 C   0  0  0  0  0  0  0  0  0  0  0  0
    9.6923    5.6468   22.7891 C   0  0  0  0  0  0  0  0  0  0  0  0
   11.7756   10.2554   20.8841 N   0  0  0  0  0  0  0  0  0  0  0  0
    8.9876   11.9370   19.8757 O   0  0  0  0  0  0  0  0  0  0  0  0
    6.0167    8.4478   21.1089 C   0  0  0  0  0  0  0  0  0  0  0  0
   11.0002   10.8890   20.0262 C   0  0  0  0  0  0  0  0  0  0  0  0
    2.1721    7.7393   20.0315 O   0  0  0  0  0  0  0  0  0  0  0  0
    9.1107   10.3880   21.3769 N   0  0  0  0  0  0  0  0  0  0  0  0
    3.9102    9.2008   20.3124 C   0  0  0  0  0  0  0  0  0  0  0  0
   12.7292   10.9960   18.4597 C   0  0  0  0  0  0  0  0  0  0  0  0
    9.3798    6.6793   23.6625 C   0  0  0  0  0  0  0  0  0  0  0  0
   14.7425   10.0739   19.0802 O   0  0  0  0  0  0  0  0  0  0  0  0
    5.1894    9.4673   20.7118 C   0  0  0  0  0  0  0  0  0  0  0  0
    7.3773    8.8224   21.4870 C   0  0  0  0  0  0  0  0  0  0  0  0
    8.4391    6.6439   21.0235 C   0  0  0  0  0  0  0  0  0  0  0  0
    9.6494   11.1353   20.4167 C   0  0  0  0  0  0  0  0  0  0  0  0
    8.1431    7.6829   21.9046 C   0  0  0  0  0  0  0  0  0  0  0  0
    7.7796   10.1314   21.5115 N   0  0  0  0  0  0  0  0  0  0  0  0
    9.2768    5.6183   21.4437 C   0  0  0  0  0  0  0  0  0  0  0  0
    8.6315    7.7322   23.1768 C   0  0  0  0  0  0  0  0  0  0  0  0
   13.0537    9.9821   20.5781 C   0  0  0  0  0  0  0  0  0  0  0  0
   10.3850    4.6575   23.2386 O   0  0  0  0  0  0  0  0  0  0  0  0
    4.2069    6.8450   20.7994 C   0  0  0  0  0  0  0  0  0  0  0  0
    3.0726   10.1043   19.8522 O   0  0  0  0  0  0  0  0  0  0  0  0
    5.5057    7.1196   21.1155 C   0  0  0  0  0  0  0  0  0  0  0  0
    7.0367   11.0229   21.9948 O   0  0  0  0  0  0  0  0  0  0  0  0
  1  8  4  0
  1 12  4  0
  2  9  1  0
  2 11  4  0
  2 25  4  0
  3 12  4  0
  3 14  1  0
  3 23  4  0
  4 13  4  0
  4 21  4  0
  4 24  1  0
  5  8  4  0
  5 23  4  0
  6 18  2  0
  7 15  4  0
  7 16  1  0
  7 27  4  0
  8 18  1  0
 10 18  1  0
 10 20  1  0
 11 15  4  0
 11 26  1  0
 13 22  4  0
 16 19  1  0
 16 20  2  0
 17 19  4  0
 17 21  4  0
 19 22  4  0
 20 28  1  0
 25 27  4  0
M  END
$$$$

 Created by Python create_sdf_string function

 28 30  0  0  0  0  0  0  0  0999 V2000
   11.4592   11.2893   18.7941 C   0  0  0  0  0  0  0  0  0  0  0  0
    3.4202    7.9009   20.3866 C   0  0  0  0  0  0  0  0  0  0  0  0
   13.5280   10.3522   19.3586 C   0  0  0  0  0  0  0  0  0  0  0  0
    9.6923    5.6468   22.7891 C   0  0  0  0  0  0  0  0  0  0  0  0
   11.7756   10.2554   20.8841 N   0  0  0  0  0  0  0  0  0  0  0  0
    8.9876   11.9370   19.8757 O   0  0  0  0  0  0  0  0  0  0  0  0
    6.0167    8.4478   21.1089 C   0  0  0  0  0  0  0  0  0  0  0  0
   11.0002   10.8890   20.0262 C   0  0  0  0  0  0  0  0  0  0  0  0
    2.1721    7.7393   20.0315 O   0  0  0  0  0  0  0  0  0  0  0  0
    9.1107   10.3880   21.3769 N   0  0  0  0  0  0  0  0  0  0  0  0
    3.9102    9.2008   20.3124 C   0  0  0  0  0  0  0  0  0  0  0  0
   12.7292   10.9960   18.4597 C   0  0  0  0  0  0  0  0  0  0  0  0
    9.3798    6.6793   23.6625 C   0  0  0  0  0  0  0  0  0  0  0  0
   14.7425   10.0739   19.0802 O   0  0  0  0  0  0  0  0  0  0  0  0
    5.1894    9.4673   20.7118 C   0  0  0  0  0  0  0  0  0  0  0  0
    7.3773    8.8224   21.4870 C   0  0  0  0  0  0  0  0  0  0  0  0
    8.4391    6.6439   21.0235 C   0  0  0  0  0  0  0  0  0  0  0  0
    9.6494   11.1353   20.4167 C   0  0  0  0  0  0  0  0  0  0  0  0
    8.1431    7.6829   21.9046 C   0  0  0  0  0  0  0  0  0  0  0  0
    7.7796   10.1314   21.5115 N   0  0  0  0  0  0  0  0  0  0  0  0
    9.2768    5.6183   21.4437 C   0  0  0  0  0  0  0  0  0  0  0  0
    8.6315    7.7322   23.1768 C   0  0  0  0  0  0  0  0  0  0  0  0
   13.0537    9.9821   20.5781 C   0  0  0  0  0  0  0  0  0  0  0  0
   10.3850    4.6575   23.2386 O   0  0  0  0  0  0  0  0  0  0  0  0
    4.2069    6.8450   20.7994 C   0  0  0  0  0  0  0  0  0  0  0  0
    3.0726   10.1043   19.8522 O   0  0  0  0  0  0  0  0  0  0  0  0
    5.5057    7.1196   21.1155 C   0  0  0  0  0  0  0  0  0  0  0  0
    7.0367   11.0229   21.9948 O   0  0  0  0  0  0  0  0  0  0  0  0
  1  8  4  0
  1 12  4  0
  2  9  1  0
  2 11  4  0
  2 25  4  0
  3 12  4  0
  3 14  1  0
  3 23  4  0
  4 13  4  0
  4 21  4  0
  4 24  1  0
  5  8  4  0
  5 23  4  0
  6 18  2  0
  7 15  4  0
  7 16  1  0
  7 27  4  0
  8 18  1  0
 10 18  1  0
 10 20  1  0
 11 15  4  0
 11 26  1  0
 13 22  4  0
 16 19  1  0
 16 20  2  0
 17 19  4  0
 17 21  4  0
 19 22  4  0
 20 28  1  0
 25 27  4  0
M  END
$$$$

 Created by Python create_sdf_string function

 28 30  0  0  0  0  0  0  0  0999 V2000
   11.4592   11.2893   18.7941 C   0  0  0  0  0  0  0  0  0  0  0  0
    3.4202    7.9009   20.3866 C   0  0  0  0  0  0  0  0  0  0  0  0
   13.5280   10.3522   19.3586 C   0  0  0  0  0  0  0  0  0  0  0  0
    9.6923    5.6468   22.7891 C   0  0  0  0  0  0  0  0  0  0  0  0
   11.7756   10.2554   20.8841 N   0  0  0  0  0  0  0  0  0  0  0  0
    8.9876   11.9370   19.8757 O   0  0  0  0  0  0  0  0  0  0  0  0
    6.0167    8.4478   21.1089 C   0  0  0  0  0  0  0  0  0  0  0  0
   11.0002   10.8890   20.0262 C   0  0  0  0  0  0  0  0  0  0  0  0
    2.1721    7.7393   20.0315 O   0  0  0  0  0  0  0  0  0  0  0  0
    9.1107   10.3880   21.3769 N   0  0  0  0  0  0  0  0  0  0  0  0
    3.9102    9.2008   20.3124 C   0  0  0  0  0  0  0  0  0  0  0  0
   12.7292   10.9960   18.4597 C   0  0  0  0  0  0  0  0  0  0  0  0
    9.3798    6.6793   23.6625 C   0  0  0  0  0  0  0  0  0  0  0  0
   14.7425   10.0739   19.0802 O   0  0  0  0  0  0  0  0  0  0  0  0
    5.1894    9.4673   20.7118 C   0  0  0  0  0  0  0  0  0  0  0  0
    7.3773    8.8224   21.4870 C   0  0  0  0  0  0  0  0  0  0  0  0
    8.4391    6.6439   21.0235 C   0  0  0  0  0  0  0  0  0  0  0  0
    9.6494   11.1353   20.4167 C   0  0  0  0  0  0  0  0  0  0  0  0
    8.1431    7.6829   21.9046 C   0  0  0  0  0  0  0  0  0  0  0  0
    7.7796   10.1314   21.5115 N   0  0  0  0  0  0  0  0  0  0  0  0
    9.2768    5.6183   21.4437 C   0  0  0  0  0  0  0  0  0  0  0  0
    8.6315    7.7322   23.1768 C   0  0  0  0  0  0  0  0  0  0  0  0
   13.0537    9.9821   20.5781 C   0  0  0  0  0  0  0  0  0  0  0  0
   10.3850    4.6575   23.2386 O   0  0  0  0  0  0  0  0  0  0  0  0
    4.2069    6.8450   20.7994 C   0  0  0  0  0  0  0  0  0  0  0  0
    3.0726   10.1043   19.8522 O   0  0  0  0  0  0  0  0  0  0  0  0
    5.5057    7.1196   21.1155 C   0  0  0  0  0  0  0  0  0  0  0  0
    7.0367   11.0229   21.9948 O   0  0  0  0  0  0  0  0  0  0  0  0
  1  8  4  0
  1 12  4  0
  2  9  1  0
  2 11  4  0
  2 25  4  0
  3 12  4  0
  3 14  1  0
  3 23  4  0
  4 13  4  0
  4 21  4  0
  4 24  1  0
  5  8  4  0
  5 23  4  0
  6 18  2  0
  7 15  4  0
  7 16  1  0
  7 27  4  0
  8 18  1  0
 10 18  1  0
 10 20  1  0
 11 15  4  0
 11 26  1  0
 13 22  4  0
 16 19  1  0
 16 20  2  0
 17 19  4  0
 17 21  4  0
 19 22  4  0
 20 28  1  0
 25 27  4  0
M  END
$$$$

 Created by Python create_sdf_string function

 28 30  0  0  0  0  0  0  0  0999 V2000
   11.4592   11.2893   18.7941 C   0  0  0  0  0  0  0  0  0  0  0  0
    3.4202    7.9009   20.3866 C   0  0  0  0  0  0  0  0  0  0  0  0
   13.5280   10.3522   19.3586 C   0  0  0  0  0  0  0  0  0  0  0  0
    9.6923    5.6468   22.7891 C   0  0  0  0  0  0  0  0  0  0  0  0
   11.7756   10.2554   20.8841 N   0  0  0  0  0  0  0  0  0  0  0  0
    8.9876   11.9370   19.8757 O   0  0  0  0  0  0  0  0  0  0  0  0
    6.0167    8.4478   21.1089 C   0  0  0  0  0  0  0  0  0  0  0  0
   11.0002   10.8890   20.0262 C   0  0  0  0  0  0  0  0  0  0  0  0
    2.1721    7.7393   20.0315 O   0  0  0  0  0  0  0  0  0  0  0  0
    9.1107   10.3880   21.3769 N   0  0  0  0  0  0  0  0  0  0  0  0
    3.9102    9.2008   20.3124 C   0  0  0  0  0  0  0  0  0  0  0  0
   12.7292   10.9960   18.4597 C   0  0  0  0  0  0  0  0  0  0  0  0
    9.3798    6.6793   23.6625 C   0  0  0  0  0  0  0  0  0  0  0  0
   14.7425   10.0739   19.0802 O   0  0  0  0  0  0  0  0  0  0  0  0
    5.1894    9.4673   20.7118 C   0  0  0  0  0  0  0  0  0  0  0  0
    7.3773    8.8224   21.4870 C   0  0  0  0  0  0  0  0  0  0  0  0
    8.4391    6.6439   21.0235 C   0  0  0  0  0  0  0  0  0  0  0  0
    9.6494   11.1353   20.4167 C   0  0  0  0  0  0  0  0  0  0  0  0
    8.1431    7.6829   21.9046 C   0  0  0  0  0  0  0  0  0  0  0  0
    7.7796   10.1314   21.5115 N   0  0  0  0  0  0  0  0  0  0  0  0
    9.2768    5.6183   21.4437 C   0  0  0  0  0  0  0  0  0  0  0  0
    8.6315    7.7322   23.1768 C   0  0  0  0  0  0  0  0  0  0  0  0
   13.0537    9.9821   20.5781 C   0  0  0  0  0  0  0  0  0  0  0  0
   10.3850    4.6575   23.2386 O   0  0  0  0  0  0  0  0  0  0  0  0
    4.2069    6.8450   20.7994 C   0  0  0  0  0  0  0  0  0  0  0  0
    3.0726   10.1043   19.8522 O   0  0  0  0  0  0  0  0  0  0  0  0
    5.5057    7.1196   21.1155 C   0  0  0  0  0  0  0  0  0  0  0  0
    7.0367   11.0229   21.9948 O   0  0  0  0  0  0  0  0  0  0  0  0
  1  8  4  0
  1 12  4  0
  2  9  1  0
  2 11  4  0
  2 25  4  0
  3 12  4  0
  3 14  1  0
  3 23  4  0
  4 13  4  0
  4 21  4  0
  4 24  1  0
  5  8  4  0
  5 23  4  0
  6 18  2  0
  7 15  4  0
  7 16  1  0
  7 27  4  0
  8 18  1  0
 10 18  1  0
 10 20  1  0
 11 15  4  0
 11 26  1  0
 13 22  4  0
 16 19  1  0
 16 20  2  0
 17 19  4  0
 17 21  4  0
 19 22  4  0
 20 28  1  0
 25 27  4  0
M  END
$$$$

 Created by Python create_sdf_string function

 28 30  0  0  0  0  0  0  0  0999 V2000
   11.4592   11.2893   18.7941 C   0  0  0  0  0  0  0  0  0  0  0  0
    3.4202    7.9009   20.3866 C   0  0  0  0  0  0  0  0  0  0  0  0
   13.5280   10.3522   19.3586 C   0  0  0  0  0  0  0  0  0  0  0  0
    9.6923    5.6468   22.7891 C   0  0  0  0  0  0  0  0  0  0  0  0
   11.7756   10.2554   20.8841 N   0  0  0  0  0  0  0  0  0  0  0  0
    8.9876   11.9370   19.8757 O   0  0  0  0  0  0  0  0  0  0  0  0
    6.0167    8.4478   21.1089 C   0  0  0  0  0  0  0  0  0  0  0  0
   11.0002   10.8890   20.0262 C   0  0  0  0  0  0  0  0  0  0  0  0
    2.1721    7.7393   20.0315 O   0  0  0  0  0  0  0  0  0  0  0  0
    9.1107   10.3880   21.3769 N   0  0  0  0  0  0  0  0  0  0  0  0
    3.9102    9.2008   20.3124 C   0  0  0  0  0  0  0  0  0  0  0  0
   12.7292   10.9960   18.4597 C   0  0  0  0  0  0  0  0  0  0  0  0
    9.3798    6.6793   23.6625 C   0  0  0  0  0  0  0  0  0  0  0  0
   14.7425   10.0739   19.0802 O   0  0  0  0  0  0  0  0  0  0  0  0
    5.1894    9.4673   20.7118 C   0  0  0  0  0  0  0  0  0  0  0  0
    7.3773    8.8224   21.4870 C   0  0  0  0  0  0  0  0  0  0  0  0
    8.4391    6.6439   21.0235 C   0  0  0  0  0  0  0  0  0  0  0  0
    9.6494   11.1353   20.4167 C   0  0  0  0  0  0  0  0  0  0  0  0
    8.1431    7.6829   21.9046 C   0  0  0  0  0  0  0  0  0  0  0  0
    7.7796   10.1314   21.5115 N   0  0  0  0  0  0  0  0  0  0  0  0
    9.2768    5.6183   21.4437 C   0  0  0  0  0  0  0  0  0  0  0  0
    8.6315    7.7322   23.1768 C   0  0  0  0  0  0  0  0  0  0  0  0
   13.0537    9.9821   20.5781 C   0  0  0  0  0  0  0  0  0  0  0  0
   10.3850    4.6575   23.2386 O   0  0  0  0  0  0  0  0  0  0  0  0
    4.2069    6.8450   20.7994 C   0  0  0  0  0  0  0  0  0  0  0  0
    3.0726   10.1043   19.8522 O   0  0  0  0  0  0  0  0  0  0  0  0
    5.5057    7.1196   21.1155 C   0  0  0  0  0  0  0  0  0  0  0  0
    7.0367   11.0229   21.9948 O   0  0  0  0  0  0  0  0  0  0  0  0
  1  8  4  0
  1 12  4  0
  2  9  1  0
  2 11  4  0
  2 25  4  0
  3 12  4  0
  3 14  1  0
  3 23  4  0
  4 13  4  0
  4 21  4  0
  4 24  1  0
  5  8  4  0
  5 23  4  0
  6 18  2  0
  7 15  4  0
  7 16  1  0
  7 27  4  0
  8 18  1  0
 10 18  1  0
 10 20  1  0
 11 15  4  0
 11 26  1  0
 13 22  4  0
 16 19  1  0
 16 20  2  0
 17 19  4  0
 17 21  4  0
 19 22  4  0
 20 28  1  0
 25 27  4  0
M  END
$$$$

 Created by Python create_sdf_string function

 28 30  0  0  0  0  0  0  0  0999 V2000
   11.4592   11.2893   18.7941 C   0  0  0  0  0  0  0  0  0  0  0  0
    3.4202    7.9009   20.3866 C   0  0  0  0  0  0  0  0  0  0  0  0
   13.5280   10.3522   19.3586 C   0  0  0  0  0  0  0  0  0  0  0  0
    9.6923    5.6468   22.7891 C   0  0  0  0  0  0  0  0  0  0  0  0
   11.7756   10.2554   20.8841 N   0  0  0  0  0  0  0  0  0  0  0  0
    8.9876   11.9370   19.8757 O   0  0  0  0  0  0  0  0  0  0  0  0
    6.0167    8.4478   21.1089 C   0  0  0  0  0  0  0  0  0  0  0  0
   11.0002   10.8890   20.0262 C   0  0  0  0  0  0  0  0  0  0  0  0
    2.1721    7.7393   20.0315 O   0  0  0  0  0  0  0  0  0  0  0  0
    9.1107   10.3880   21.3769 N   0  0  0  0  0  0  0  0  0  0  0  0
    3.9102    9.2008   20.3124 C   0  0  0  0  0  0  0  0  0  0  0  0
   12.7292   10.9960   18.4597 C   0  0  0  0  0  0  0  0  0  0  0  0
    9.3798    6.6793   23.6625 C   0  0  0  0  0  0  0  0  0  0  0  0
   14.7425   10.0739   19.0802 O   0  0  0  0  0  0  0  0  0  0  0  0
    5.1894    9.4673   20.7118 C   0  0  0  0  0  0  0  0  0  0  0  0
    7.3773    8.8224   21.4870 C   0  0  0  0  0  0  0  0  0  0  0  0
    8.4391    6.6439   21.0235 C   0  0  0  0  0  0  0  0  0  0  0  0
    9.6494   11.1353   20.4167 C   0  0  0  0  0  0  0  0  0  0  0  0
    8.1431    7.6829   21.9046 C   0  0  0  0  0  0  0  0  0  0  0  0
    7.7796   10.1314   21.5115 N   0  0  0  0  0  0  0  0  0  0  0  0
    9.2768    5.6183   21.4437 C   0  0  0  0  0  0  0  0  0  0  0  0
    8.6315    7.7322   23.1768 C   0  0  0  0  0  0  0  0  0  0  0  0
   13.0537    9.9821   20.5781 C   0  0  0  0  0  0  0  0  0  0  0  0
   10.3850    4.6575   23.2386 O   0  0  0  0  0  0  0  0  0  0  0  0
    4.2069    6.8450   20.7994 C   0  0  0  0  0  0  0  0  0  0  0  0
    3.0726   10.1043   19.8522 O   0  0  0  0  0  0  0  0  0  0  0  0
    5.5057    7.1196   21.1155 C   0  0  0  0  0  0  0  0  0  0  0  0
    7.0367   11.0229   21.9948 O   0  0  0  0  0  0  0  0  0  0  0  0
  1  8  4  0
  1 12  4  0
  2  9  1  0
  2 11  4  0
  2 25  4  0
  3 12  4  0
  3 14  1  0
  3 23  4  0
  4 13  4  0
  4 21  4  0
  4 24  1  0
  5  8  4  0
  5 23  4  0
  6 18  2  0
  7 15  4  0
  7 16  1  0
  7 27  4  0
  8 18  1  0
 10 18  1  0
 10 20  1  0
 11 15  4  0
 11 26  1  0
 13 22  4  0
 16 19  1  0
 16 20  2  0
 17 19  4  0
 17 21  4  0
 19 22  4  0
 20 28  1  0
 25 27  4  0
M  END
$$$$

 Created by Python create_sdf_string function

 28 30  0  0  0  0  0  0  0  0999 V2000
   11.4592   11.2893   18.7941 C   0  0  0  0  0  0  0  0  0  0  0  0
    3.4202    7.9009   20.3866 C   0  0  0  0  0  0  0  0  0  0  0  0
   13.5280   10.3522   19.3586 C   0  0  0  0  0  0  0  0  0  0  0  0
    9.6923    5.6468   22.7891 C   0  0  0  0  0  0  0  0  0  0  0  0
   11.7756   10.2554   20.8841 N   0  0  0  0  0  0  0  0  0  0  0  0
    8.9876   11.9370   19.8757 O   0  0  0  0  0  0  0  0  0  0  0  0
    6.0167    8.4478   21.1089 C   0  0  0  0  0  0  0  0  0  0  0  0
   11.0002   10.8890   20.0262 C   0  0  0  0  0  0  0  0  0  0  0  0
    2.1721    7.7393   20.0315 O   0  0  0  0  0  0  0  0  0  0  0  0
    9.1107   10.3880   21.3769 N   0  0  0  0  0  0  0  0  0  0  0  0
    3.9102    9.2008   20.3124 C   0  0  0  0  0  0  0  0  0  0  0  0
   12.7292   10.9960   18.4597 C   0  0  0  0  0  0  0  0  0  0  0  0
    9.3798    6.6793   23.6625 C   0  0  0  0  0  0  0  0  0  0  0  0
   14.7425   10.0739   19.0802 O   0  0  0  0  0  0  0  0  0  0  0  0
    5.1894    9.4673   20.7118 C   0  0  0  0  0  0  0  0  0  0  0  0
    7.3773    8.8224   21.4870 C   0  0  0  0  0  0  0  0  0  0  0  0
    8.4391    6.6439   21.0235 C   0  0  0  0  0  0  0  0  0  0  0  0
    9.6494   11.1353   20.4167 C   0  0  0  0  0  0  0  0  0  0  0  0
    8.1431    7.6829   21.9046 C   0  0  0  0  0  0  0  0  0  0  0  0
    7.7796   10.1314   21.5115 N   0  0  0  0  0  0  0  0  0  0  0  0
    9.2768    5.6183   21.4437 C   0  0  0  0  0  0  0  0  0  0  0  0
    8.6315    7.7322   23.1768 C   0  0  0  0  0  0  0  0  0  0  0  0
   13.0537    9.9821   20.5781 C   0  0  0  0  0  0  0  0  0  0  0  0
   10.3850    4.6575   23.2386 O   0  0  0  0  0  0  0  0  0  0  0  0
    4.2069    6.8450   20.7994 C   0  0  0  0  0  0  0  0  0  0  0  0
    3.0726   10.1043   19.8522 O   0  0  0  0  0  0  0  0  0  0  0  0
    5.5057    7.1196   21.1155 C   0  0  0  0  0  0  0  0  0  0  0  0
    7.0367   11.0229   21.9948 O   0  0  0  0  0  0  0  0  0  0  0  0
  1  8  4  0
  1 12  4  0
  2  9  1  0
  2 11  4  0
  2 25  4  0
  3 12  4  0
  3 14  1  0
  3 23  4  0
  4 13  4  0
  4 21  4  0
  4 24  1  0
  5  8  4  0
  5 23  4  0
  6 18  2  0
  7 15  4  0
  7 16  1  0
  7 27  4  0
  8 18  1  0
 10 18  1  0
 10 20  1  0
 11 15  4  0
 11 26  1  0
 13 22  4  0
 16 19  1  0
 16 20  2  0
 17 19  4  0
 17 21  4  0
 19 22  4  0
 20 28  1  0
 25 27  4  0
M  END
$$$$

 Created by Python create_sdf_string function

 28 30  0  0  0  0  0  0  0  0999 V2000
   11.4592   11.2893   18.7941 C   0  0  0  0  0  0  0  0  0  0  0  0
    3.4202    7.9009   20.3866 C   0  0  0  0  0  0  0  0  0  0  0  0
   13.5280   10.3522   19.3586 C   0  0  0  0  0  0  0  0  0  0  0  0
    9.6923    5.6468   22.7891 C   0  0  0  0  0  0  0  0  0  0  0  0
   11.7756   10.2554   20.8841 N   0  0  0  0  0  0  0  0  0  0  0  0
    8.9876   11.9370   19.8757 O   0  0  0  0  0  0  0  0  0  0  0  0
    6.0167    8.4478   21.1089 C   0  0  0  0  0  0  0  0  0  0  0  0
   11.0002   10.8890   20.0262 C   0  0  0  0  0  0  0  0  0  0  0  0
    2.1721    7.7393   20.0315 O   0  0  0  0  0  0  0  0  0  0  0  0
    9.1107   10.3880   21.3769 N   0  0  0  0  0  0  0  0  0  0  0  0
    3.9102    9.2008   20.3124 C   0  0  0  0  0  0  0  0  0  0  0  0
   12.7292   10.9960   18.4597 C   0  0  0  0  0  0  0  0  0  0  0  0
    9.3798    6.6793   23.6625 C   0  0  0  0  0  0  0  0  0  0  0  0
   14.7425   10.0739   19.0802 O   0  0  0  0  0  0  0  0  0  0  0  0
    5.1894    9.4673   20.7118 C   0  0  0  0  0  0  0  0  0  0  0  0
    7.3773    8.8224   21.4870 C   0  0  0  0  0  0  0  0  0  0  0  0
    8.4391    6.6439   21.0235 C   0  0  0  0  0  0  0  0  0  0  0  0
    9.6494   11.1353   20.4167 C   0  0  0  0  0  0  0  0  0  0  0  0
    8.1431    7.6829   21.9046 C   0  0  0  0  0  0  0  0  0  0  0  0
    7.7796   10.1314   21.5115 N   0  0  0  0  0  0  0  0  0  0  0  0
    9.2768    5.6183   21.4437 C   0  0  0  0  0  0  0  0  0  0  0  0
    8.6315    7.7322   23.1768 C   0  0  0  0  0  0  0  0  0  0  0  0
   13.0537    9.9821   20.5781 C   0  0  0  0  0  0  0  0  0  0  0  0
   10.3850    4.6575   23.2386 O   0  0  0  0  0  0  0  0  0  0  0  0
    4.2069    6.8450   20.7994 C   0  0  0  0  0  0  0  0  0  0  0  0
    3.0726   10.1043   19.8522 O   0  0  0  0  0  0  0  0  0  0  0  0
    5.5057    7.1196   21.1155 C   0  0  0  0  0  0  0  0  0  0  0  0
    7.0367   11.0229   21.9948 O   0  0  0  0  0  0  0  0  0  0  0  0
  1  8  4  0
  1 12  4  0
  2  9  1  0
  2 11  4  0
  2 25  4  0
  3 12  4  0
  3 14  1  0
  3 23  4  0
  4 13  4  0
  4 21  4  0
  4 24  1  0
  5  8  4  0
  5 23  4  0
  6 18  2  0
  7 15  4  0
  7 16  1  0
  7 27  4  0
  8 18  1  0
 10 18  1  0
 10 20  1  0
 11 15  4  0
 11 26  1  0
 13 22  4  0
 16 19  1  0
 16 20  2  0
 17 19  4  0
 17 21  4  0
 19 22  4  0
 20 28  1  0
 25 27  4  0
M  END
$$$$

 Created by Python create_sdf_string function

 28 30  0  0  0  0  0  0  0  0999 V2000
   11.4592   11.2893   18.7941 C   0  0  0  0  0  0  0  0  0  0  0  0
    3.4202    7.9009   20.3866 C   0  0  0  0  0  0  0  0  0  0  0  0
   13.5280   10.3522   19.3586 C   0  0  0  0  0  0  0  0  0  0  0  0
    9.6923    5.6468   22.7891 C   0  0  0  0  0  0  0  0  0  0  0  0
   11.7756   10.2554   20.8841 N   0  0  0  0  0  0  0  0  0  0  0  0
    8.9876   11.9370   19.8757 O   0  0  0  0  0  0  0  0  0  0  0  0
    6.0167    8.4478   21.1089 C   0  0  0  0  0  0  0  0  0  0  0  0
   11.0002   10.8890   20.0262 C   0  0  0  0  0  0  0  0  0  0  0  0
    2.1721    7.7393   20.0315 O   0  0  0  0  0  0  0  0  0  0  0  0
    9.1107   10.3880   21.3769 N   0  0  0  0  0  0  0  0  0  0  0  0
    3.9102    9.2008   20.3124 C   0  0  0  0  0  0  0  0  0  0  0  0
   12.7292   10.9960   18.4597 C   0  0  0  0  0  0  0  0  0  0  0  0
    9.3798    6.6793   23.6625 C   0  0  0  0  0  0  0  0  0  0  0  0
   14.7425   10.0739   19.0802 O   0  0  0  0  0  0  0  0  0  0  0  0
    5.1894    9.4673   20.7118 C   0  0  0  0  0  0  0  0  0  0  0  0
    7.3773    8.8224   21.4870 C   0  0  0  0  0  0  0  0  0  0  0  0
    8.4391    6.6439   21.0235 C   0  0  0  0  0  0  0  0  0  0  0  0
    9.6494   11.1353   20.4167 C   0  0  0  0  0  0  0  0  0  0  0  0
    8.1431    7.6829   21.9046 C   0  0  0  0  0  0  0  0  0  0  0  0
    7.7796   10.1314   21.5115 N   0  0  0  0  0  0  0  0  0  0  0  0
    9.2768    5.6183   21.4437 C   0  0  0  0  0  0  0  0  0  0  0  0
    8.6315    7.7322   23.1768 C   0  0  0  0  0  0  0  0  0  0  0  0
   13.0537    9.9821   20.5781 C   0  0  0  0  0  0  0  0  0  0  0  0
   10.3850    4.6575   23.2386 O   0  0  0  0  0  0  0  0  0  0  0  0
    4.2069    6.8450   20.7994 C   0  0  0  0  0  0  0  0  0  0  0  0
    3.0726   10.1043   19.8522 O   0  0  0  0  0  0  0  0  0  0  0  0
    5.5057    7.1196   21.1155 C   0  0  0  0  0  0  0  0  0  0  0  0
    7.0367   11.0229   21.9948 O   0  0  0  0  0  0  0  0  0  0  0  0
  1  8  4  0
  1 12  4  0
  2  9  1  0
  2 11  4  0
  2 25  4  0
  3 12  4  0
  3 14  1  0
  3 23  4  0
  4 13  4  0
  4 21  4  0
  4 24  1  0
  5  8  4  0
  5 23  4  0
  6 18  2  0
  7 15  4  0
  7 16  1  0
  7 27  4  0
  8 18  1  0
 10 18  1  0
 10 20  1  0
 11 15  4  0
 11 26  1  0
 13 22  4  0
 16 19  1  0
 16 20  2  0
 17 19  4  0
 17 21  4  0
 19 22  4  0
 20 28  1  0
 25 27  4  0
M  END
$$$$

 Created by Python create_sdf_string function

 28 30  0  0  0  0  0  0  0  0999 V2000
   11.4592   11.2893   18.7941 C   0  0  0  0  0  0  0  0  0  0  0  0
    3.4202    7.9009   20.3866 C   0  0  0  0  0  0  0  0  0  0  0  0
   13.5280   10.3522   19.3586 C   0  0  0  0  0  0  0  0  0  0  0  0
    9.6923    5.6468   22.7891 C   0  0  0  0  0  0  0  0  0  0  0  0
   11.7756   10.2554   20.8841 N   0  0  0  0  0  0  0  0  0  0  0  0
    8.9876   11.9370   19.8757 O   0  0  0  0  0  0  0  0  0  0  0  0
    6.0167    8.4478   21.1089 C   0  0  0  0  0  0  0  0  0  0  0  0
   11.0002   10.8890   20.0262 C   0  0  0  0  0  0  0  0  0  0  0  0
    2.1721    7.7393   20.0315 O   0  0  0  0  0  0  0  0  0  0  0  0
    9.1107   10.3880   21.3769 N   0  0  0  0  0  0  0  0  0  0  0  0
    3.9102    9.2008   20.3124 C   0  0  0  0  0  0  0  0  0  0  0  0
   12.7292   10.9960   18.4597 C   0  0  0  0  0  0  0  0  0  0  0  0
    9.3798    6.6793   23.6625 C   0  0  0  0  0  0  0  0  0  0  0  0
   14.7425   10.0739   19.0802 O   0  0  0  0  0  0  0  0  0  0  0  0
    5.1894    9.4673   20.7118 C   0  0  0  0  0  0  0  0  0  0  0  0
    7.3773    8.8224   21.4870 C   0  0  0  0  0  0  0  0  0  0  0  0
    8.4391    6.6439   21.0235 C   0  0  0  0  0  0  0  0  0  0  0  0
    9.6494   11.1353   20.4167 C   0  0  0  0  0  0  0  0  0  0  0  0
    8.1431    7.6829   21.9046 C   0  0  0  0  0  0  0  0  0  0  0  0
    7.7796   10.1314   21.5115 N   0  0  0  0  0  0  0  0  0  0  0  0
    9.2768    5.6183   21.4437 C   0  0  0  0  0  0  0  0  0  0  0  0
    8.6315    7.7322   23.1768 C   0  0  0  0  0  0  0  0  0  0  0  0
   13.0537    9.9821   20.5781 C   0  0  0  0  0  0  0  0  0  0  0  0
   10.3850    4.6575   23.2386 O   0  0  0  0  0  0  0  0  0  0  0  0
    4.2069    6.8450   20.7994 C   0  0  0  0  0  0  0  0  0  0  0  0
    3.0726   10.1043   19.8522 O   0  0  0  0  0  0  0  0  0  0  0  0
    5.5057    7.1196   21.1155 C   0  0  0  0  0  0  0  0  0  0  0  0
    7.0367   11.0229   21.9948 O   0  0  0  0  0  0  0  0  0  0  0  0
  1  8  4  0
  1 12  4  0
  2  9  1  0
  2 11  4  0
  2 25  4  0
  3 12  4  0
  3 14  1  0
  3 23  4  0
  4 13  4  0
  4 21  4  0
  4 24  1  0
  5  8  4  0
  5 23  4  0
  6 18  2  0
  7 15  4  0
  7 16  1  0
  7 27  4  0
  8 18  1  0
 10 18  1  0
 10 20  1  0
 11 15  4  0
 11 26  1  0
 13 22  4  0
 16 19  1  0
 16 20  2  0
 17 19  4  0
 17 21  4  0
 19 22  4  0
 20 28  1  0
 25 27  4  0
M  END
$$$$

 Created by Python create_sdf_string function

 28 30  0  0  0  0  0  0  0  0999 V2000
   11.4592   11.2893   18.7941 C   0  0  0  0  0  0  0  0  0  0  0  0
    3.4202    7.9009   20.3866 C   0  0  0  0  0  0  0  0  0  0  0  0
   13.5280   10.3522   19.3586 C   0  0  0  0  0  0  0  0  0  0  0  0
    9.6923    5.6468   22.7891 C   0  0  0  0  0  0  0  0  0  0  0  0
   11.7756   10.2554   20.8841 N   0  0  0  0  0  0  0  0  0  0  0  0
    8.9876   11.9370   19.8757 O   0  0  0  0  0  0  0  0  0  0  0  0
    6.0167    8.4478   21.1089 C   0  0  0  0  0  0  0  0  0  0  0  0
   11.0002   10.8890   20.0262 C   0  0  0  0  0  0  0  0  0  0  0  0
    2.1721    7.7393   20.0315 O   0  0  0  0  0  0  0  0  0  0  0  0
    9.1107   10.3880   21.3769 N   0  0  0  0  0  0  0  0  0  0  0  0
    3.9102    9.2008   20.3124 C   0  0  0  0  0  0  0  0  0  0  0  0
   12.7292   10.9960   18.4597 C   0  0  0  0  0  0  0  0  0  0  0  0
    9.3798    6.6793   23.6625 C   0  0  0  0  0  0  0  0  0  0  0  0
   14.7425   10.0739   19.0802 O   0  0  0  0  0  0  0  0  0  0  0  0
    5.1894    9.4673   20.7118 C   0  0  0  0  0  0  0  0  0  0  0  0
    7.3773    8.8224   21.4870 C   0  0  0  0  0  0  0  0  0  0  0  0
    8.4391    6.6439   21.0235 C   0  0  0  0  0  0  0  0  0  0  0  0
    9.6494   11.1353   20.4167 C   0  0  0  0  0  0  0  0  0  0  0  0
    8.1431    7.6829   21.9046 C   0  0  0  0  0  0  0  0  0  0  0  0
    7.7796   10.1314   21.5115 N   0  0  0  0  0  0  0  0  0  0  0  0
    9.2768    5.6183   21.4437 C   0  0  0  0  0  0  0  0  0  0  0  0
    8.6315    7.7322   23.1768 C   0  0  0  0  0  0  0  0  0  0  0  0
   13.0537    9.9821   20.5781 C   0  0  0  0  0  0  0  0  0  0  0  0
   10.3850    4.6575   23.2386 O   0  0  0  0  0  0  0  0  0  0  0  0
    4.2069    6.8450   20.7994 C   0  0  0  0  0  0  0  0  0  0  0  0
    3.0726   10.1043   19.8522 O   0  0  0  0  0  0  0  0  0  0  0  0
    5.5057    7.1196   21.1155 C   0  0  0  0  0  0  0  0  0  0  0  0
    7.0367   11.0229   21.9948 O   0  0  0  0  0  0  0  0  0  0  0  0
  1  8  4  0
  1 12  4  0
  2  9  1  0
  2 11  4  0
  2 25  4  0
  3 12  4  0
  3 14  1  0
  3 23  4  0
  4 13  4  0
  4 21  4  0
  4 24  1  0
  5  8  4  0
  5 23  4  0
  6 18  2  0
  7 15  4  0
  7 16  1  0
  7 27  4  0
  8 18  1  0
 10 18  1  0
 10 20  1  0
 11 15  4  0
 11 26  1  0
 13 22  4  0
 16 19  1  0
 16 20  2  0
 17 19  4  0
 17 21  4  0
 19 22  4  0
 20 28  1  0
 25 27  4  0
M  END
$$$$

 Created by Python create_sdf_string function

 28 30  0  0  0  0  0  0  0  0999 V2000
   11.4592   11.2893   18.7941 C   0  0  0  0  0  0  0  0  0  0  0  0
    3.4202    7.9009   20.3866 C   0  0  0  0  0  0  0  0  0  0  0  0
   13.5280   10.3522   19.3586 C   0  0  0  0  0  0  0  0  0  0  0  0
    9.6923    5.6468   22.7891 C   0  0  0  0  0  0  0  0  0  0  0  0
   11.7756   10.2554   20.8841 N   0  0  0  0  0  0  0  0  0  0  0  0
    8.9876   11.9370   19.8757 O   0  0  0  0  0  0  0  0  0  0  0  0
    6.0167    8.4478   21.1089 C   0  0  0  0  0  0  0  0  0  0  0  0
   11.0002   10.8890   20.0262 C   0  0  0  0  0  0  0  0  0  0  0  0
    2.1721    7.7393   20.0315 O   0  0  0  0  0  0  0  0  0  0  0  0
    9.1107   10.3880   21.3769 N   0  0  0  0  0  0  0  0  0  0  0  0
    3.9102    9.2008   20.3124 C   0  0  0  0  0  0  0  0  0  0  0  0
   12.7292   10.9960   18.4597 C   0  0  0  0  0  0  0  0  0  0  0  0
    9.3798    6.6793   23.6625 C   0  0  0  0  0  0  0  0  0  0  0  0
   14.7425   10.0739   19.0802 O   0  0  0  0  0  0  0  0  0  0  0  0
    5.1894    9.4673   20.7118 C   0  0  0  0  0  0  0  0  0  0  0  0
    7.3773    8.8224   21.4870 C   0  0  0  0  0  0  0  0  0  0  0  0
    8.4391    6.6439   21.0235 C   0  0  0  0  0  0  0  0  0  0  0  0
    9.6494   11.1353   20.4167 C   0  0  0  0  0  0  0  0  0  0  0  0
    8.1431    7.6829   21.9046 C   0  0  0  0  0  0  0  0  0  0  0  0
    7.7796   10.1314   21.5115 N   0  0  0  0  0  0  0  0  0  0  0  0
    9.2768    5.6183   21.4437 C   0  0  0  0  0  0  0  0  0  0  0  0
    8.6315    7.7322   23.1768 C   0  0  0  0  0  0  0  0  0  0  0  0
   13.0537    9.9821   20.5781 C   0  0  0  0  0  0  0  0  0  0  0  0
   10.3850    4.6575   23.2386 O   0  0  0  0  0  0  0  0  0  0  0  0
    4.2069    6.8450   20.7994 C   0  0  0  0  0  0  0  0  0  0  0  0
    3.0726   10.1043   19.8522 O   0  0  0  0  0  0  0  0  0  0  0  0
    5.5057    7.1196   21.1155 C   0  0  0  0  0  0  0  0  0  0  0  0
    7.0367   11.0229   21.9948 O   0  0  0  0  0  0  0  0  0  0  0  0
  1  8  4  0
  1 12  4  0
  2  9  1  0
  2 11  4  0
  2 25  4  0
  3 12  4  0
  3 14  1  0
  3 23  4  0
  4 13  4  0
  4 21  4  0
  4 24  1  0
  5  8  4  0
  5 23  4  0
  6 18  2  0
  7 15  4  0
  7 16  1  0
  7 27  4  0
  8 18  1  0
 10 18  1  0
 10 20  1  0
 11 15  4  0
 11 26  1  0
 13 22  4  0
 16 19  1  0
 16 20  2  0
 17 19  4  0
 17 21  4  0
 19 22  4  0
 20 28  1  0
 25 27  4  0
M  END
$$$$

 Created by Python create_sdf_string function

 28 30  0  0  0  0  0  0  0  0999 V2000
   11.4592   11.2893   18.7941 C   0  0  0  0  0  0  0  0  0  0  0  0
    3.4202    7.9009   20.3866 C   0  0  0  0  0  0  0  0  0  0  0  0
   13.5280   10.3522   19.3586 C   0  0  0  0  0  0  0  0  0  0  0  0
    9.6923    5.6468   22.7891 C   0  0  0  0  0  0  0  0  0  0  0  0
   11.7756   10.2554   20.8841 N   0  0  0  0  0  0  0  0  0  0  0  0
    8.9876   11.9370   19.8757 O   0  0  0  0  0  0  0  0  0  0  0  0
    6.0167    8.4478   21.1089 C   0  0  0  0  0  0  0  0  0  0  0  0
   11.0002   10.8890   20.0262 C   0  0  0  0  0  0  0  0  0  0  0  0
    2.1721    7.7393   20.0315 O   0  0  0  0  0  0  0  0  0  0  0  0
    9.1107   10.3880   21.3769 N   0  0  0  0  0  0  0  0  0  0  0  0
    3.9102    9.2008   20.3124 C   0  0  0  0  0  0  0  0  0  0  0  0
   12.7292   10.9960   18.4597 C   0  0  0  0  0  0  0  0  0  0  0  0
    9.3798    6.6793   23.6625 C   0  0  0  0  0  0  0  0  0  0  0  0
   14.7425   10.0739   19.0802 O   0  0  0  0  0  0  0  0  0  0  0  0
    5.1894    9.4673   20.7118 C   0  0  0  0  0  0  0  0  0  0  0  0
    7.3773    8.8224   21.4870 C   0  0  0  0  0  0  0  0  0  0  0  0
    8.4391    6.6439   21.0235 C   0  0  0  0  0  0  0  0  0  0  0  0
    9.6494   11.1353   20.4167 C   0  0  0  0  0  0  0  0  0  0  0  0
    8.1431    7.6829   21.9046 C   0  0  0  0  0  0  0  0  0  0  0  0
    7.7796   10.1314   21.5115 N   0  0  0  0  0  0  0  0  0  0  0  0
    9.2768    5.6183   21.4437 C   0  0  0  0  0  0  0  0  0  0  0  0
    8.6315    7.7322   23.1768 C   0  0  0  0  0  0  0  0  0  0  0  0
   13.0537    9.9821   20.5781 C   0  0  0  0  0  0  0  0  0  0  0  0
   10.3850    4.6575   23.2386 O   0  0  0  0  0  0  0  0  0  0  0  0
    4.2069    6.8450   20.7994 C   0  0  0  0  0  0  0  0  0  0  0  0
    3.0726   10.1043   19.8522 O   0  0  0  0  0  0  0  0  0  0  0  0
    5.5057    7.1196   21.1155 C   0  0  0  0  0  0  0  0  0  0  0  0
    7.0367   11.0229   21.9948 O   0  0  0  0  0  0  0  0  0  0  0  0
  1  8  4  0
  1 12  4  0
  2  9  1  0
  2 11  4  0
  2 25  4  0
  3 12  4  0
  3 14  1  0
  3 23  4  0
  4 13  4  0
  4 21  4  0
  4 24  1  0
  5  8  4  0
  5 23  4  0
  6 18  2  0
  7 15  4  0
  7 16  1  0
  7 27  4  0
  8 18  1  0
 10 18  1  0
 10 20  1  0
 11 15  4  0
 11 26  1  0
 13 22  4  0
 16 19  1  0
 16 20  2  0
 17 19  4  0
 17 21  4  0
 19 22  4  0
 20 28  1  0
 25 27  4  0
M  END
$$$$

 Created by Python create_sdf_string function

 28 30  0  0  0  0  0  0  0  0999 V2000
   11.4592   11.2893   18.7941 C   0  0  0  0  0  0  0  0  0  0  0  0
    3.4202    7.9009   20.3866 C   0  0  0  0  0  0  0  0  0  0  0  0
   13.5280   10.3522   19.3586 C   0  0  0  0  0  0  0  0  0  0  0  0
    9.6923    5.6468   22.7891 C   0  0  0  0  0  0  0  0  0  0  0  0
   11.7756   10.2554   20.8841 N   0  0  0  0  0  0  0  0  0  0  0  0
    8.9876   11.9370   19.8757 O   0  0  0  0  0  0  0  0  0  0  0  0
    6.0167    8.4478   21.1089 C   0  0  0  0  0  0  0  0  0  0  0  0
   11.0002   10.8890   20.0262 C   0  0  0  0  0  0  0  0  0  0  0  0
    2.1721    7.7393   20.0315 O   0  0  0  0  0  0  0  0  0  0  0  0
    9.1107   10.3880   21.3769 N   0  0  0  0  0  0  0  0  0  0  0  0
    3.9102    9.2008   20.3124 C   0  0  0  0  0  0  0  0  0  0  0  0
   12.7292   10.9960   18.4597 C   0  0  0  0  0  0  0  0  0  0  0  0
    9.3798    6.6793   23.6625 C   0  0  0  0  0  0  0  0  0  0  0  0
   14.7425   10.0739   19.0802 O   0  0  0  0  0  0  0  0  0  0  0  0
    5.1894    9.4673   20.7118 C   0  0  0  0  0  0  0  0  0  0  0  0
    7.3773    8.8224   21.4870 C   0  0  0  0  0  0  0  0  0  0  0  0
    8.4391    6.6439   21.0235 C   0  0  0  0  0  0  0  0  0  0  0  0
    9.6494   11.1353   20.4167 C   0  0  0  0  0  0  0  0  0  0  0  0
    8.1431    7.6829   21.9046 C   0  0  0  0  0  0  0  0  0  0  0  0
    7.7796   10.1314   21.5115 N   0  0  0  0  0  0  0  0  0  0  0  0
    9.2768    5.6183   21.4437 C   0  0  0  0  0  0  0  0  0  0  0  0
    8.6315    7.7322   23.1768 C   0  0  0  0  0  0  0  0  0  0  0  0
   13.0537    9.9821   20.5781 C   0  0  0  0  0  0  0  0  0  0  0  0
   10.3850    4.6575   23.2386 O   0  0  0  0  0  0  0  0  0  0  0  0
    4.2069    6.8450   20.7994 C   0  0  0  0  0  0  0  0  0  0  0  0
    3.0726   10.1043   19.8522 O   0  0  0  0  0  0  0  0  0  0  0  0
    5.5057    7.1196   21.1155 C   0  0  0  0  0  0  0  0  0  0  0  0
    7.0367   11.0229   21.9948 O   0  0  0  0  0  0  0  0  0  0  0  0
  1  8  4  0
  1 12  4  0
  2  9  1  0
  2 11  4  0
  2 25  4  0
  3 12  4  0
  3 14  1  0
  3 23  4  0
  4 13  4  0
  4 21  4  0
  4 24  1  0
  5  8  4  0
  5 23  4  0
  6 18  2  0
  7 15  4  0
  7 16  1  0
  7 27  4  0
  8 18  1  0
 10 18  1  0
 10 20  1  0
 11 15  4  0
 11 26  1  0
 13 22  4  0
 16 19  1  0
 16 20  2  0
 17 19  4  0
 17 21  4  0
 19 22  4  0
 20 28  1  0
 25 27  4  0
M  END
$$$$

 Created by Python create_sdf_string function

 28 30  0  0  0  0  0  0  0  0999 V2000
   11.4592   11.2893   18.7941 C   0  0  0  0  0  0  0  0  0  0  0  0
    3.4202    7.9009   20.3866 C   0  0  0  0  0  0  0  0  0  0  0  0
   13.5280   10.3522   19.3586 C   0  0  0  0  0  0  0  0  0  0  0  0
    9.6923    5.6468   22.7891 C   0  0  0  0  0  0  0  0  0  0  0  0
   11.7756   10.2554   20.8841 N   0  0  0  0  0  0  0  0  0  0  0  0
    8.9876   11.9370   19.8757 O   0  0  0  0  0  0  0  0  0  0  0  0
    6.0167    8.4478   21.1089 C   0  0  0  0  0  0  0  0  0  0  0  0
   11.0002   10.8890   20.0262 C   0  0  0  0  0  0  0  0  0  0  0  0
    2.1721    7.7393   20.0315 O   0  0  0  0  0  0  0  0  0  0  0  0
    9.1107   10.3880   21.3769 N   0  0  0  0  0  0  0  0  0  0  0  0
    3.9102    9.2008   20.3124 C   0  0  0  0  0  0  0  0  0  0  0  0
   12.7292   10.9960   18.4597 C   0  0  0  0  0  0  0  0  0  0  0  0
    9.3798    6.6793   23.6625 C   0  0  0  0  0  0  0  0  0  0  0  0
   14.7425   10.0739   19.0802 O   0  0  0  0  0  0  0  0  0  0  0  0
    5.1894    9.4673   20.7118 C   0  0  0  0  0  0  0  0  0  0  0  0
    7.3773    8.8224   21.4870 C   0  0  0  0  0  0  0  0  0  0  0  0
    8.4391    6.6439   21.0235 C   0  0  0  0  0  0  0  0  0  0  0  0
    9.6494   11.1353   20.4167 C   0  0  0  0  0  0  0  0  0  0  0  0
    8.1431    7.6829   21.9046 C   0  0  0  0  0  0  0  0  0  0  0  0
    7.7796   10.1314   21.5115 N   0  0  0  0  0  0  0  0  0  0  0  0
    9.2768    5.6183   21.4437 C   0  0  0  0  0  0  0  0  0  0  0  0
    8.6315    7.7322   23.1768 C   0  0  0  0  0  0  0  0  0  0  0  0
   13.0537    9.9821   20.5781 C   0  0  0  0  0  0  0  0  0  0  0  0
   10.3850    4.6575   23.2386 O   0  0  0  0  0  0  0  0  0  0  0  0
    4.2069    6.8450   20.7994 C   0  0  0  0  0  0  0  0  0  0  0  0
    3.0726   10.1043   19.8522 O   0  0  0  0  0  0  0  0  0  0  0  0
    5.5057    7.1196   21.1155 C   0  0  0  0  0  0  0  0  0  0  0  0
    7.0367   11.0229   21.9948 O   0  0  0  0  0  0  0  0  0  0  0  0
  1  8  4  0
  1 12  4  0
  2  9  1  0
  2 11  4  0
  2 25  4  0
  3 12  4  0
  3 14  1  0
  3 23  4  0
  4 13  4  0
  4 21  4  0
  4 24  1  0
  5  8  4  0
  5 23  4  0
  6 18  2  0
  7 15  4  0
  7 16  1  0
  7 27  4  0
  8 18  1  0
 10 18  1  0
 10 20  1  0
 11 15  4  0
 11 26  1  0
 13 22  4  0
 16 19  1  0
 16 20  2  0
 17 19  4  0
 17 21  4  0
 19 22  4  0
 20 28  1  0
 25 27  4  0
M  END
$$$$

 Created by Python create_sdf_string function

 28 30  0  0  0  0  0  0  0  0999 V2000
   11.4592   11.2893   18.7941 C   0  0  0  0  0  0  0  0  0  0  0  0
    3.4202    7.9009   20.3866 C   0  0  0  0  0  0  0  0  0  0  0  0
   13.5280   10.3522   19.3586 C   0  0  0  0  0  0  0  0  0  0  0  0
    9.6923    5.6468   22.7891 C   0  0  0  0  0  0  0  0  0  0  0  0
   11.7756   10.2554   20.8841 N   0  0  0  0  0  0  0  0  0  0  0  0
    8.9876   11.9370   19.8757 O   0  0  0  0  0  0  0  0  0  0  0  0
    6.0167    8.4478   21.1089 C   0  0  0  0  0  0  0  0  0  0  0  0
   11.0002   10.8890   20.0262 C   0  0  0  0  0  0  0  0  0  0  0  0
    2.1721    7.7393   20.0315 O   0  0  0  0  0  0  0  0  0  0  0  0
    9.1107   10.3880   21.3769 N   0  0  0  0  0  0  0  0  0  0  0  0
    3.9102    9.2008   20.3124 C   0  0  0  0  0  0  0  0  0  0  0  0
   12.7292   10.9960   18.4597 C   0  0  0  0  0  0  0  0  0  0  0  0
    9.3798    6.6793   23.6625 C   0  0  0  0  0  0  0  0  0  0  0  0
   14.7425   10.0739   19.0802 O   0  0  0  0  0  0  0  0  0  0  0  0
    5.1894    9.4673   20.7118 C   0  0  0  0  0  0  0  0  0  0  0  0
    7.3773    8.8224   21.4870 C   0  0  0  0  0  0  0  0  0  0  0  0
    8.4391    6.6439   21.0235 C   0  0  0  0  0  0  0  0  0  0  0  0
    9.6494   11.1353   20.4167 C   0  0  0  0  0  0  0  0  0  0  0  0
    8.1431    7.6829   21.9046 C   0  0  0  0  0  0  0  0  0  0  0  0
    7.7796   10.1314   21.5115 N   0  0  0  0  0  0  0  0  0  0  0  0
    9.2768    5.6183   21.4437 C   0  0  0  0  0  0  0  0  0  0  0  0
    8.6315    7.7322   23.1768 C   0  0  0  0  0  0  0  0  0  0  0  0
   13.0537    9.9821   20.5781 C   0  0  0  0  0  0  0  0  0  0  0  0
   10.3850    4.6575   23.2386 O   0  0  0  0  0  0  0  0  0  0  0  0
    4.2069    6.8450   20.7994 C   0  0  0  0  0  0  0  0  0  0  0  0
    3.0726   10.1043   19.8522 O   0  0  0  0  0  0  0  0  0  0  0  0
    5.5057    7.1196   21.1155 C   0  0  0  0  0  0  0  0  0  0  0  0
    7.0367   11.0229   21.9948 O   0  0  0  0  0  0  0  0  0  0  0  0
  1  8  4  0
  1 12  4  0
  2  9  1  0
  2 11  4  0
  2 25  4  0
  3 12  4  0
  3 14  1  0
  3 23  4  0
  4 13  4  0
  4 21  4  0
  4 24  1  0
  5  8  4  0
  5 23  4  0
  6 18  2  0
  7 15  4  0
  7 16  1  0
  7 27  4  0
  8 18  1  0
 10 18  1  0
 10 20  1  0
 11 15  4  0
 11 26  1  0
 13 22  4  0
 16 19  1  0
 16 20  2  0
 17 19  4  0
 17 21  4  0
 19 22  4  0
 20 28  1  0
 25 27  4  0
M  END
$$$$

 Created by Python create_sdf_string function

 28 30  0  0  0  0  0  0  0  0999 V2000
   11.4592   11.2893   18.7941 C   0  0  0  0  0  0  0  0  0  0  0  0
    3.4202    7.9009   20.3866 C   0  0  0  0  0  0  0  0  0  0  0  0
   13.5280   10.3522   19.3586 C   0  0  0  0  0  0  0  0  0  0  0  0
    9.6923    5.6468   22.7891 C   0  0  0  0  0  0  0  0  0  0  0  0
   11.7756   10.2554   20.8841 N   0  0  0  0  0  0  0  0  0  0  0  0
    8.9876   11.9370   19.8757 O   0  0  0  0  0  0  0  0  0  0  0  0
    6.0167    8.4478   21.1089 C   0  0  0  0  0  0  0  0  0  0  0  0
   11.0002   10.8890   20.0262 C   0  0  0  0  0  0  0  0  0  0  0  0
    2.1721    7.7393   20.0315 O   0  0  0  0  0  0  0  0  0  0  0  0
    9.1107   10.3880   21.3769 N   0  0  0  0  0  0  0  0  0  0  0  0
    3.9102    9.2008   20.3124 C   0  0  0  0  0  0  0  0  0  0  0  0
   12.7292   10.9960   18.4597 C   0  0  0  0  0  0  0  0  0  0  0  0
    9.3798    6.6793   23.6625 C   0  0  0  0  0  0  0  0  0  0  0  0
   14.7425   10.0739   19.0802 O   0  0  0  0  0  0  0  0  0  0  0  0
    5.1894    9.4673   20.7118 C   0  0  0  0  0  0  0  0  0  0  0  0
    7.3773    8.8224   21.4870 C   0  0  0  0  0  0  0  0  0  0  0  0
    8.4391    6.6439   21.0235 C   0  0  0  0  0  0  0  0  0  0  0  0
    9.6494   11.1353   20.4167 C   0  0  0  0  0  0  0  0  0  0  0  0
    8.1431    7.6829   21.9046 C   0  0  0  0  0  0  0  0  0  0  0  0
    7.7796   10.1314   21.5115 N   0  0  0  0  0  0  0  0  0  0  0  0
    9.2768    5.6183   21.4437 C   0  0  0  0  0  0  0  0  0  0  0  0
    8.6315    7.7322   23.1768 C   0  0  0  0  0  0  0  0  0  0  0  0
   13.0537    9.9821   20.5781 C   0  0  0  0  0  0  0  0  0  0  0  0
   10.3850    4.6575   23.2386 O   0  0  0  0  0  0  0  0  0  0  0  0
    4.2069    6.8450   20.7994 C   0  0  0  0  0  0  0  0  0  0  0  0
    3.0726   10.1043   19.8522 O   0  0  0  0  0  0  0  0  0  0  0  0
    5.5057    7.1196   21.1155 C   0  0  0  0  0  0  0  0  0  0  0  0
    7.0367   11.0229   21.9948 O   0  0  0  0  0  0  0  0  0  0  0  0
  1  8  4  0
  1 12  4  0
  2  9  1  0
  2 11  4  0
  2 25  4  0
  3 12  4  0
  3 14  1  0
  3 23  4  0
  4 13  4  0
  4 21  4  0
  4 24  1  0
  5  8  4  0
  5 23  4  0
  6 18  2  0
  7 15  4  0
  7 16  1  0
  7 27  4  0
  8 18  1  0
 10 18  1  0
 10 20  1  0
 11 15  4  0
 11 26  1  0
 13 22  4  0
 16 19  1  0
 16 20  2  0
 17 19  4  0
 17 21  4  0
 19 22  4  0
 20 28  1  0
 25 27  4  0
M  END
$$$$

 Created by Python create_sdf_string function

 28 30  0  0  0  0  0  0  0  0999 V2000
   11.4592   11.2893   18.7941 C   0  0  0  0  0  0  0  0  0  0  0  0
    3.4202    7.9009   20.3866 C   0  0  0  0  0  0  0  0  0  0  0  0
   13.5280   10.3522   19.3586 C   0  0  0  0  0  0  0  0  0  0  0  0
    9.6923    5.6468   22.7891 C   0  0  0  0  0  0  0  0  0  0  0  0
   11.7756   10.2554   20.8841 N   0  0  0  0  0  0  0  0  0  0  0  0
    8.9876   11.9370   19.8757 O   0  0  0  0  0  0  0  0  0  0  0  0
    6.0167    8.4478   21.1089 C   0  0  0  0  0  0  0  0  0  0  0  0
   11.0002   10.8890   20.0262 C   0  0  0  0  0  0  0  0  0  0  0  0
    2.1721    7.7393   20.0315 O   0  0  0  0  0  0  0  0  0  0  0  0
    9.1107   10.3880   21.3769 N   0  0  0  0  0  0  0  0  0  0  0  0
    3.9102    9.2008   20.3124 C   0  0  0  0  0  0  0  0  0  0  0  0
   12.7292   10.9960   18.4597 C   0  0  0  0  0  0  0  0  0  0  0  0
    9.3798    6.6793   23.6625 C   0  0  0  0  0  0  0  0  0  0  0  0
   14.7425   10.0739   19.0802 O   0  0  0  0  0  0  0  0  0  0  0  0
    5.1894    9.4673   20.7118 C   0  0  0  0  0  0  0  0  0  0  0  0
    7.3773    8.8224   21.4870 C   0  0  0  0  0  0  0  0  0  0  0  0
    8.4391    6.6439   21.0235 C   0  0  0  0  0  0  0  0  0  0  0  0
    9.6494   11.1353   20.4167 C   0  0  0  0  0  0  0  0  0  0  0  0
    8.1431    7.6829   21.9046 C   0  0  0  0  0  0  0  0  0  0  0  0
    7.7796   10.1314   21.5115 N   0  0  0  0  0  0  0  0  0  0  0  0
    9.2768    5.6183   21.4437 C   0  0  0  0  0  0  0  0  0  0  0  0
    8.6315    7.7322   23.1768 C   0  0  0  0  0  0  0  0  0  0  0  0
   13.0537    9.9821   20.5781 C   0  0  0  0  0  0  0  0  0  0  0  0
   10.3850    4.6575   23.2386 O   0  0  0  0  0  0  0  0  0  0  0  0
    4.2069    6.8450   20.7994 C   0  0  0  0  0  0  0  0  0  0  0  0
    3.0726   10.1043   19.8522 O   0  0  0  0  0  0  0  0  0  0  0  0
    5.5057    7.1196   21.1155 C   0  0  0  0  0  0  0  0  0  0  0  0
    7.0367   11.0229   21.9948 O   0  0  0  0  0  0  0  0  0  0  0  0
  1  8  4  0
  1 12  4  0
  2  9  1  0
  2 11  4  0
  2 25  4  0
  3 12  4  0
  3 14  1  0
  3 23  4  0
  4 13  4  0
  4 21  4  0
  4 24  1  0
  5  8  4  0
  5 23  4  0
  6 18  2  0
  7 15  4  0
  7 16  1  0
  7 27  4  0
  8 18  1  0
 10 18  1  0
 10 20  1  0
 11 15  4  0
 11 26  1  0
 13 22  4  0
 16 19  1  0
 16 20  2  0
 17 19  4  0
 17 21  4  0
 19 22  4  0
 20 28  1  0
 25 27  4  0
M  END
$$$$

 Created by Python create_sdf_string function

 28 30  0  0  0  0  0  0  0  0999 V2000
   11.4592   11.2893   18.7941 C   0  0  0  0  0  0  0  0  0  0  0  0
    3.4202    7.9009   20.3866 C   0  0  0  0  0  0  0  0  0  0  0  0
   13.5280   10.3522   19.3586 C   0  0  0  0  0  0  0  0  0  0  0  0
    9.6923    5.6468   22.7891 C   0  0  0  0  0  0  0  0  0  0  0  0
   11.7756   10.2554   20.8841 N   0  0  0  0  0  0  0  0  0  0  0  0
    8.9876   11.9370   19.8757 O   0  0  0  0  0  0  0  0  0  0  0  0
    6.0167    8.4478   21.1089 C   0  0  0  0  0  0  0  0  0  0  0  0
   11.0002   10.8890   20.0262 C   0  0  0  0  0  0  0  0  0  0  0  0
    2.1721    7.7393   20.0315 O   0  0  0  0  0  0  0  0  0  0  0  0
    9.1107   10.3880   21.3769 N   0  0  0  0  0  0  0  0  0  0  0  0
    3.9102    9.2008   20.3124 C   0  0  0  0  0  0  0  0  0  0  0  0
   12.7292   10.9960   18.4597 C   0  0  0  0  0  0  0  0  0  0  0  0
    9.3798    6.6793   23.6625 C   0  0  0  0  0  0  0  0  0  0  0  0
   14.7425   10.0739   19.0802 O   0  0  0  0  0  0  0  0  0  0  0  0
    5.1894    9.4673   20.7118 C   0  0  0  0  0  0  0  0  0  0  0  0
    7.3773    8.8224   21.4870 C   0  0  0  0  0  0  0  0  0  0  0  0
    8.4391    6.6439   21.0235 C   0  0  0  0  0  0  0  0  0  0  0  0
    9.6494   11.1353   20.4167 C   0  0  0  0  0  0  0  0  0  0  0  0
    8.1431    7.6829   21.9046 C   0  0  0  0  0  0  0  0  0  0  0  0
    7.7796   10.1314   21.5115 N   0  0  0  0  0  0  0  0  0  0  0  0
    9.2768    5.6183   21.4437 C   0  0  0  0  0  0  0  0  0  0  0  0
    8.6315    7.7322   23.1768 C   0  0  0  0  0  0  0  0  0  0  0  0
   13.0537    9.9821   20.5781 C   0  0  0  0  0  0  0  0  0  0  0  0
   10.3850    4.6575   23.2386 O   0  0  0  0  0  0  0  0  0  0  0  0
    4.2069    6.8450   20.7994 C   0  0  0  0  0  0  0  0  0  0  0  0
    3.0726   10.1043   19.8522 O   0  0  0  0  0  0  0  0  0  0  0  0
    5.5057    7.1196   21.1155 C   0  0  0  0  0  0  0  0  0  0  0  0
    7.0367   11.0229   21.9948 O   0  0  0  0  0  0  0  0  0  0  0  0
  1  8  4  0
  1 12  4  0
  2  9  1  0
  2 11  4  0
  2 25  4  0
  3 12  4  0
  3 14  1  0
  3 23  4  0
  4 13  4  0
  4 21  4  0
  4 24  1  0
  5  8  4  0
  5 23  4  0
  6 18  2  0
  7 15  4  0
  7 16  1  0
  7 27  4  0
  8 18  1  0
 10 18  1  0
 10 20  1  0
 11 15  4  0
 11 26  1  0
 13 22  4  0
 16 19  1  0
 16 20  2  0
 17 19  4  0
 17 21  4  0
 19 22  4  0
 20 28  1  0
 25 27  4  0
M  END
$$$$

 Created by Python create_sdf_string function

 28 30  0  0  0  0  0  0  0  0999 V2000
   11.4592   11.2893   18.7941 C   0  0  0  0  0  0  0  0  0  0  0  0
    3.4202    7.9009   20.3866 C   0  0  0  0  0  0  0  0  0  0  0  0
   13.5280   10.3522   19.3586 C   0  0  0  0  0  0  0  0  0  0  0  0
    9.6923    5.6468   22.7891 C   0  0  0  0  0  0  0  0  0  0  0  0
   11.7756   10.2554   20.8841 N   0  0  0  0  0  0  0  0  0  0  0  0
    8.9876   11.9370   19.8757 O   0  0  0  0  0  0  0  0  0  0  0  0
    6.0167    8.4478   21.1089 C   0  0  0  0  0  0  0  0  0  0  0  0
   11.0002   10.8890   20.0262 C   0  0  0  0  0  0  0  0  0  0  0  0
    2.1721    7.7393   20.0315 O   0  0  0  0  0  0  0  0  0  0  0  0
    9.1107   10.3880   21.3769 N   0  0  0  0  0  0  0  0  0  0  0  0
    3.9102    9.2008   20.3124 C   0  0  0  0  0  0  0  0  0  0  0  0
   12.7292   10.9960   18.4597 C   0  0  0  0  0  0  0  0  0  0  0  0
    9.3798    6.6793   23.6625 C   0  0  0  0  0  0  0  0  0  0  0  0
   14.7425   10.0739   19.0802 O   0  0  0  0  0  0  0  0  0  0  0  0
    5.1894    9.4673   20.7118 C   0  0  0  0  0  0  0  0  0  0  0  0
    7.3773    8.8224   21.4870 C   0  0  0  0  0  0  0  0  0  0  0  0
    8.4391    6.6439   21.0235 C   0  0  0  0  0  0  0  0  0  0  0  0
    9.6494   11.1353   20.4167 C   0  0  0  0  0  0  0  0  0  0  0  0
    8.1431    7.6829   21.9046 C   0  0  0  0  0  0  0  0  0  0  0  0
    7.7796   10.1314   21.5115 N   0  0  0  0  0  0  0  0  0  0  0  0
    9.2768    5.6183   21.4437 C   0  0  0  0  0  0  0  0  0  0  0  0
    8.6315    7.7322   23.1768 C   0  0  0  0  0  0  0  0  0  0  0  0
   13.0537    9.9821   20.5781 C   0  0  0  0  0  0  0  0  0  0  0  0
   10.3850    4.6575   23.2386 O   0  0  0  0  0  0  0  0  0  0  0  0
    4.2069    6.8450   20.7994 C   0  0  0  0  0  0  0  0  0  0  0  0
    3.0726   10.1043   19.8522 O   0  0  0  0  0  0  0  0  0  0  0  0
    5.5057    7.1196   21.1155 C   0  0  0  0  0  0  0  0  0  0  0  0
    7.0367   11.0229   21.9948 O   0  0  0  0  0  0  0  0  0  0  0  0
  1  8  4  0
  1 12  4  0
  2  9  1  0
  2 11  4  0
  2 25  4  0
  3 12  4  0
  3 14  1  0
  3 23  4  0
  4 13  4  0
  4 21  4  0
  4 24  1  0
  5  8  4  0
  5 23  4  0
  6 18  2  0
  7 15  4  0
  7 16  1  0
  7 27  4  0
  8 18  1  0
 10 18  1  0
 10 20  1  0
 11 15  4  0
 11 26  1  0
 13 22  4  0
 16 19  1  0
 16 20  2  0
 17 19  4  0
 17 21  4  0
 19 22  4  0
 20 28  1  0
 25 27  4  0
M  END
$$$$

 Created by Python create_sdf_string function

 28 30  0  0  0  0  0  0  0  0999 V2000
   11.4592   11.2893   18.7941 C   0  0  0  0  0  0  0  0  0  0  0  0
    3.4202    7.9009   20.3866 C   0  0  0  0  0  0  0  0  0  0  0  0
   13.5280   10.3522   19.3586 C   0  0  0  0  0  0  0  0  0  0  0  0
    9.6923    5.6468   22.7891 C   0  0  0  0  0  0  0  0  0  0  0  0
   11.7756   10.2554   20.8841 N   0  0  0  0  0  0  0  0  0  0  0  0
    8.9876   11.9370   19.8757 O   0  0  0  0  0  0  0  0  0  0  0  0
    6.0167    8.4478   21.1089 C   0  0  0  0  0  0  0  0  0  0  0  0
   11.0002   10.8890   20.0262 C   0  0  0  0  0  0  0  0  0  0  0  0
    2.1721    7.7393   20.0315 O   0  0  0  0  0  0  0  0  0  0  0  0
    9.1107   10.3880   21.3769 N   0  0  0  0  0  0  0  0  0  0  0  0
    3.9102    9.2008   20.3124 C   0  0  0  0  0  0  0  0  0  0  0  0
   12.7292   10.9960   18.4597 C   0  0  0  0  0  0  0  0  0  0  0  0
    9.3798    6.6793   23.6625 C   0  0  0  0  0  0  0  0  0  0  0  0
   14.7425   10.0739   19.0802 O   0  0  0  0  0  0  0  0  0  0  0  0
    5.1894    9.4673   20.7118 C   0  0  0  0  0  0  0  0  0  0  0  0
    7.3773    8.8224   21.4870 C   0  0  0  0  0  0  0  0  0  0  0  0
    8.4391    6.6439   21.0235 C   0  0  0  0  0  0  0  0  0  0  0  0
    9.6494   11.1353   20.4167 C   0  0  0  0  0  0  0  0  0  0  0  0
    8.1431    7.6829   21.9046 C   0  0  0  0  0  0  0  0  0  0  0  0
    7.7796   10.1314   21.5115 N   0  0  0  0  0  0  0  0  0  0  0  0
    9.2768    5.6183   21.4437 C   0  0  0  0  0  0  0  0  0  0  0  0
    8.6315    7.7322   23.1768 C   0  0  0  0  0  0  0  0  0  0  0  0
   13.0537    9.9821   20.5781 C   0  0  0  0  0  0  0  0  0  0  0  0
   10.3850    4.6575   23.2386 O   0  0  0  0  0  0  0  0  0  0  0  0
    4.2069    6.8450   20.7994 C   0  0  0  0  0  0  0  0  0  0  0  0
    3.0726   10.1043   19.8522 O   0  0  0  0  0  0  0  0  0  0  0  0
    5.5057    7.1196   21.1155 C   0  0  0  0  0  0  0  0  0  0  0  0
    7.0367   11.0229   21.9948 O   0  0  0  0  0  0  0  0  0  0  0  0
  1  8  4  0
  1 12  4  0
  2  9  1  0
  2 11  4  0
  2 25  4  0
  3 12  4  0
  3 14  1  0
  3 23  4  0
  4 13  4  0
  4 21  4  0
  4 24  1  0
  5  8  4  0
  5 23  4  0
  6 18  2  0
  7 15  4  0
  7 16  1  0
  7 27  4  0
  8 18  1  0
 10 18  1  0
 10 20  1  0
 11 15  4  0
 11 26  1  0
 13 22  4  0
 16 19  1  0
 16 20  2  0
 17 19  4  0
 17 21  4  0
 19 22  4  0
 20 28  1  0
 25 27  4  0
M  END
$$$$

 Created by Python create_sdf_string function

 28 30  0  0  0  0  0  0  0  0999 V2000
   11.4592   11.2893   18.7941 C   0  0  0  0  0  0  0  0  0  0  0  0
    3.4202    7.9009   20.3866 C   0  0  0  0  0  0  0  0  0  0  0  0
   13.5280   10.3522   19.3586 C   0  0  0  0  0  0  0  0  0  0  0  0
    9.6923    5.6468   22.7891 C   0  0  0  0  0  0  0  0  0  0  0  0
   11.7756   10.2554   20.8841 N   0  0  0  0  0  0  0  0  0  0  0  0
    8.9876   11.9370   19.8757 O   0  0  0  0  0  0  0  0  0  0  0  0
    6.0167    8.4478   21.1089 C   0  0  0  0  0  0  0  0  0  0  0  0
   11.0002   10.8890   20.0262 C   0  0  0  0  0  0  0  0  0  0  0  0
    2.1721    7.7393   20.0315 O   0  0  0  0  0  0  0  0  0  0  0  0
    9.1107   10.3880   21.3769 N   0  0  0  0  0  0  0  0  0  0  0  0
    3.9102    9.2008   20.3124 C   0  0  0  0  0  0  0  0  0  0  0  0
   12.7292   10.9960   18.4597 C   0  0  0  0  0  0  0  0  0  0  0  0
    9.3798    6.6793   23.6625 C   0  0  0  0  0  0  0  0  0  0  0  0
   14.7425   10.0739   19.0802 O   0  0  0  0  0  0  0  0  0  0  0  0
    5.1894    9.4673   20.7118 C   0  0  0  0  0  0  0  0  0  0  0  0
    7.3773    8.8224   21.4870 C   0  0  0  0  0  0  0  0  0  0  0  0
    8.4391    6.6439   21.0235 C   0  0  0  0  0  0  0  0  0  0  0  0
    9.6494   11.1353   20.4167 C   0  0  0  0  0  0  0  0  0  0  0  0
    8.1431    7.6829   21.9046 C   0  0  0  0  0  0  0  0  0  0  0  0
    7.7796   10.1314   21.5115 N   0  0  0  0  0  0  0  0  0  0  0  0
    9.2768    5.6183   21.4437 C   0  0  0  0  0  0  0  0  0  0  0  0
    8.6315    7.7322   23.1768 C   0  0  0  0  0  0  0  0  0  0  0  0
   13.0537    9.9821   20.5781 C   0  0  0  0  0  0  0  0  0  0  0  0
   10.3850    4.6575   23.2386 O   0  0  0  0  0  0  0  0  0  0  0  0
    4.2069    6.8450   20.7994 C   0  0  0  0  0  0  0  0  0  0  0  0
    3.0726   10.1043   19.8522 O   0  0  0  0  0  0  0  0  0  0  0  0
    5.5057    7.1196   21.1155 C   0  0  0  0  0  0  0  0  0  0  0  0
    7.0367   11.0229   21.9948 O   0  0  0  0  0  0  0  0  0  0  0  0
  1  8  4  0
  1 12  4  0
  2  9  1  0
  2 11  4  0
  2 25  4  0
  3 12  4  0
  3 14  1  0
  3 23  4  0
  4 13  4  0
  4 21  4  0
  4 24  1  0
  5  8  4  0
  5 23  4  0
  6 18  2  0
  7 15  4  0
  7 16  1  0
  7 27  4  0
  8 18  1  0
 10 18  1  0
 10 20  1  0
 11 15  4  0
 11 26  1  0
 13 22  4  0
 16 19  1  0
 16 20  2  0
 17 19  4  0
 17 21  4  0
 19 22  4  0
 20 28  1  0
 25 27  4  0
M  END
$$$$

 Created by Python create_sdf_string function

 28 30  0  0  0  0  0  0  0  0999 V2000
   11.4592   11.2893   18.7941 C   0  0  0  0  0  0  0  0  0  0  0  0
    3.4202    7.9009   20.3866 C   0  0  0  0  0  0  0  0  0  0  0  0
   13.5280   10.3522   19.3586 C   0  0  0  0  0  0  0  0  0  0  0  0
    9.6923    5.6468   22.7891 C   0  0  0  0  0  0  0  0  0  0  0  0
   11.7756   10.2554   20.8841 N   0  0  0  0  0  0  0  0  0  0  0  0
    8.9876   11.9370   19.8757 O   0  0  0  0  0  0  0  0  0  0  0  0
    6.0167    8.4478   21.1089 C   0  0  0  0  0  0  0  0  0  0  0  0
   11.0002   10.8890   20.0262 C   0  0  0  0  0  0  0  0  0  0  0  0
    2.1721    7.7393   20.0315 O   0  0  0  0  0  0  0  0  0  0  0  0
    9.1107   10.3880   21.3769 N   0  0  0  0  0  0  0  0  0  0  0  0
    3.9102    9.2008   20.3124 C   0  0  0  0  0  0  0  0  0  0  0  0
   12.7292   10.9960   18.4597 C   0  0  0  0  0  0  0  0  0  0  0  0
    9.3798    6.6793   23.6625 C   0  0  0  0  0  0  0  0  0  0  0  0
   14.7425   10.0739   19.0802 O   0  0  0  0  0  0  0  0  0  0  0  0
    5.1894    9.4673   20.7118 C   0  0  0  0  0  0  0  0  0  0  0  0
    7.3773    8.8224   21.4870 C   0  0  0  0  0  0  0  0  0  0  0  0
    8.4391    6.6439   21.0235 C   0  0  0  0  0  0  0  0  0  0  0  0
    9.6494   11.1353   20.4167 C   0  0  0  0  0  0  0  0  0  0  0  0
    8.1431    7.6829   21.9046 C   0  0  0  0  0  0  0  0  0  0  0  0
    7.7796   10.1314   21.5115 N   0  0  0  0  0  0  0  0  0  0  0  0
    9.2768    5.6183   21.4437 C   0  0  0  0  0  0  0  0  0  0  0  0
    8.6315    7.7322   23.1768 C   0  0  0  0  0  0  0  0  0  0  0  0
   13.0537    9.9821   20.5781 C   0  0  0  0  0  0  0  0  0  0  0  0
   10.3850    4.6575   23.2386 O   0  0  0  0  0  0  0  0  0  0  0  0
    4.2069    6.8450   20.7994 C   0  0  0  0  0  0  0  0  0  0  0  0
    3.0726   10.1043   19.8522 O   0  0  0  0  0  0  0  0  0  0  0  0
    5.5057    7.1196   21.1155 C   0  0  0  0  0  0  0  0  0  0  0  0
    7.0367   11.0229   21.9948 O   0  0  0  0  0  0  0  0  0  0  0  0
  1  8  4  0
  1 12  4  0
  2  9  1  0
  2 11  4  0
  2 25  4  0
  3 12  4  0
  3 14  1  0
  3 23  4  0
  4 13  4  0
  4 21  4  0
  4 24  1  0
  5  8  4  0
  5 23  4  0
  6 18  2  0
  7 15  4  0
  7 16  1  0
  7 27  4  0
  8 18  1  0
 10 18  1  0
 10 20  1  0
 11 15  4  0
 11 26  1  0
 13 22  4  0
 16 19  1  0
 16 20  2  0
 17 19  4  0
 17 21  4  0
 19 22  4  0
 20 28  1  0
 25 27  4  0
M  END
$$$$

 Created by Python create_sdf_string function

 28 30  0  0  0  0  0  0  0  0999 V2000
   11.4592   11.2893   18.7941 C   0  0  0  0  0  0  0  0  0  0  0  0
    3.4202    7.9009   20.3866 C   0  0  0  0  0  0  0  0  0  0  0  0
   13.5280   10.3522   19.3586 C   0  0  0  0  0  0  0  0  0  0  0  0
    9.6923    5.6468   22.7891 C   0  0  0  0  0  0  0  0  0  0  0  0
   11.7756   10.2554   20.8841 N   0  0  0  0  0  0  0  0  0  0  0  0
    8.9876   11.9370   19.8757 O   0  0  0  0  0  0  0  0  0  0  0  0
    6.0167    8.4478   21.1089 C   0  0  0  0  0  0  0  0  0  0  0  0
   11.0002   10.8890   20.0262 C   0  0  0  0  0  0  0  0  0  0  0  0
    2.1721    7.7393   20.0315 O   0  0  0  0  0  0  0  0  0  0  0  0
    9.1107   10.3880   21.3769 N   0  0  0  0  0  0  0  0  0  0  0  0
    3.9102    9.2008   20.3124 C   0  0  0  0  0  0  0  0  0  0  0  0
   12.7292   10.9960   18.4597 C   0  0  0  0  0  0  0  0  0  0  0  0
    9.3798    6.6793   23.6625 C   0  0  0  0  0  0  0  0  0  0  0  0
   14.7425   10.0739   19.0802 O   0  0  0  0  0  0  0  0  0  0  0  0
    5.1894    9.4673   20.7118 C   0  0  0  0  0  0  0  0  0  0  0  0
    7.3773    8.8224   21.4870 C   0  0  0  0  0  0  0  0  0  0  0  0
    8.4391    6.6439   21.0235 C   0  0  0  0  0  0  0  0  0  0  0  0
    9.6494   11.1353   20.4167 C   0  0  0  0  0  0  0  0  0  0  0  0
    8.1431    7.6829   21.9046 C   0  0  0  0  0  0  0  0  0  0  0  0
    7.7796   10.1314   21.5115 N   0  0  0  0  0  0  0  0  0  0  0  0
    9.2768    5.6183   21.4437 C   0  0  0  0  0  0  0  0  0  0  0  0
    8.6315    7.7322   23.1768 C   0  0  0  0  0  0  0  0  0  0  0  0
   13.0537    9.9821   20.5781 C   0  0  0  0  0  0  0  0  0  0  0  0
   10.3850    4.6575   23.2386 O   0  0  0  0  0  0  0  0  0  0  0  0
    4.2069    6.8450   20.7994 C   0  0  0  0  0  0  0  0  0  0  0  0
    3.0726   10.1043   19.8522 O   0  0  0  0  0  0  0  0  0  0  0  0
    5.5057    7.1196   21.1155 C   0  0  0  0  0  0  0  0  0  0  0  0
    7.0367   11.0229   21.9948 O   0  0  0  0  0  0  0  0  0  0  0  0
  1  8  4  0
  1 12  4  0
  2  9  1  0
  2 11  4  0
  2 25  4  0
  3 12  4  0
  3 14  1  0
  3 23  4  0
  4 13  4  0
  4 21  4  0
  4 24  1  0
  5  8  4  0
  5 23  4  0
  6 18  2  0
  7 15  4  0
  7 16  1  0
  7 27  4  0
  8 18  1  0
 10 18  1  0
 10 20  1  0
 11 15  4  0
 11 26  1  0
 13 22  4  0
 16 19  1  0
 16 20  2  0
 17 19  4  0
 17 21  4  0
 19 22  4  0
 20 28  1  0
 25 27  4  0
M  END
$$$$

 Created by Python create_sdf_string function

 28 30  0  0  0  0  0  0  0  0999 V2000
   11.4592   11.2893   18.7941 C   0  0  0  0  0  0  0  0  0  0  0  0
    3.4202    7.9009   20.3866 C   0  0  0  0  0  0  0  0  0  0  0  0
   13.5280   10.3522   19.3586 C   0  0  0  0  0  0  0  0  0  0  0  0
    9.6923    5.6468   22.7891 C   0  0  0  0  0  0  0  0  0  0  0  0
   11.7756   10.2554   20.8841 N   0  0  0  0  0  0  0  0  0  0  0  0
    8.9876   11.9370   19.8757 O   0  0  0  0  0  0  0  0  0  0  0  0
    6.0167    8.4478   21.1089 C   0  0  0  0  0  0  0  0  0  0  0  0
   11.0002   10.8890   20.0262 C   0  0  0  0  0  0  0  0  0  0  0  0
    2.1721    7.7393   20.0315 O   0  0  0  0  0  0  0  0  0  0  0  0
    9.1107   10.3880   21.3769 N   0  0  0  0  0  0  0  0  0  0  0  0
    3.9102    9.2008   20.3124 C   0  0  0  0  0  0  0  0  0  0  0  0
   12.7292   10.9960   18.4597 C   0  0  0  0  0  0  0  0  0  0  0  0
    9.3798    6.6793   23.6625 C   0  0  0  0  0  0  0  0  0  0  0  0
   14.7425   10.0739   19.0802 O   0  0  0  0  0  0  0  0  0  0  0  0
    5.1894    9.4673   20.7118 C   0  0  0  0  0  0  0  0  0  0  0  0
    7.3773    8.8224   21.4870 C   0  0  0  0  0  0  0  0  0  0  0  0
    8.4391    6.6439   21.0235 C   0  0  0  0  0  0  0  0  0  0  0  0
    9.6494   11.1353   20.4167 C   0  0  0  0  0  0  0  0  0  0  0  0
    8.1431    7.6829   21.9046 C   0  0  0  0  0  0  0  0  0  0  0  0
    7.7796   10.1314   21.5115 N   0  0  0  0  0  0  0  0  0  0  0  0
    9.2768    5.6183   21.4437 C   0  0  0  0  0  0  0  0  0  0  0  0
    8.6315    7.7322   23.1768 C   0  0  0  0  0  0  0  0  0  0  0  0
   13.0537    9.9821   20.5781 C   0  0  0  0  0  0  0  0  0  0  0  0
   10.3850    4.6575   23.2386 O   0  0  0  0  0  0  0  0  0  0  0  0
    4.2069    6.8450   20.7994 C   0  0  0  0  0  0  0  0  0  0  0  0
    3.0726   10.1043   19.8522 O   0  0  0  0  0  0  0  0  0  0  0  0
    5.5057    7.1196   21.1155 C   0  0  0  0  0  0  0  0  0  0  0  0
    7.0367   11.0229   21.9948 O   0  0  0  0  0  0  0  0  0  0  0  0
  1  8  4  0
  1 12  4  0
  2  9  1  0
  2 11  4  0
  2 25  4  0
  3 12  4  0
  3 14  1  0
  3 23  4  0
  4 13  4  0
  4 21  4  0
  4 24  1  0
  5  8  4  0
  5 23  4  0
  6 18  2  0
  7 15  4  0
  7 16  1  0
  7 27  4  0
  8 18  1  0
 10 18  1  0
 10 20  1  0
 11 15  4  0
 11 26  1  0
 13 22  4  0
 16 19  1  0
 16 20  2  0
 17 19  4  0
 17 21  4  0
 19 22  4  0
 20 28  1  0
 25 27  4  0
M  END
$$$$

 Created by Python create_sdf_string function

 28 30  0  0  0  0  0  0  0  0999 V2000
   11.4592   11.2893   18.7941 C   0  0  0  0  0  0  0  0  0  0  0  0
    3.4202    7.9009   20.3866 C   0  0  0  0  0  0  0  0  0  0  0  0
   13.5280   10.3522   19.3586 C   0  0  0  0  0  0  0  0  0  0  0  0
    9.6923    5.6468   22.7891 C   0  0  0  0  0  0  0  0  0  0  0  0
   11.7756   10.2554   20.8841 N   0  0  0  0  0  0  0  0  0  0  0  0
    8.9876   11.9370   19.8757 O   0  0  0  0  0  0  0  0  0  0  0  0
    6.0167    8.4478   21.1089 C   0  0  0  0  0  0  0  0  0  0  0  0
   11.0002   10.8890   20.0262 C   0  0  0  0  0  0  0  0  0  0  0  0
    2.1721    7.7393   20.0315 O   0  0  0  0  0  0  0  0  0  0  0  0
    9.1107   10.3880   21.3769 N   0  0  0  0  0  0  0  0  0  0  0  0
    3.9102    9.2008   20.3124 C   0  0  0  0  0  0  0  0  0  0  0  0
   12.7292   10.9960   18.4597 C   0  0  0  0  0  0  0  0  0  0  0  0
    9.3798    6.6793   23.6625 C   0  0  0  0  0  0  0  0  0  0  0  0
   14.7425   10.0739   19.0802 O   0  0  0  0  0  0  0  0  0  0  0  0
    5.1894    9.4673   20.7118 C   0  0  0  0  0  0  0  0  0  0  0  0
    7.3773    8.8224   21.4870 C   0  0  0  0  0  0  0  0  0  0  0  0
    8.4391    6.6439   21.0235 C   0  0  0  0  0  0  0  0  0  0  0  0
    9.6494   11.1353   20.4167 C   0  0  0  0  0  0  0  0  0  0  0  0
    8.1431    7.6829   21.9046 C   0  0  0  0  0  0  0  0  0  0  0  0
    7.7796   10.1314   21.5115 N   0  0  0  0  0  0  0  0  0  0  0  0
    9.2768    5.6183   21.4437 C   0  0  0  0  0  0  0  0  0  0  0  0
    8.6315    7.7322   23.1768 C   0  0  0  0  0  0  0  0  0  0  0  0
   13.0537    9.9821   20.5781 C   0  0  0  0  0  0  0  0  0  0  0  0
   10.3850    4.6575   23.2386 O   0  0  0  0  0  0  0  0  0  0  0  0
    4.2069    6.8450   20.7994 C   0  0  0  0  0  0  0  0  0  0  0  0
    3.0726   10.1043   19.8522 O   0  0  0  0  0  0  0  0  0  0  0  0
    5.5057    7.1196   21.1155 C   0  0  0  0  0  0  0  0  0  0  0  0
    7.0367   11.0229   21.9948 O   0  0  0  0  0  0  0  0  0  0  0  0
  1  8  4  0
  1 12  4  0
  2  9  1  0
  2 11  4  0
  2 25  4  0
  3 12  4  0
  3 14  1  0
  3 23  4  0
  4 13  4  0
  4 21  4  0
  4 24  1  0
  5  8  4  0
  5 23  4  0
  6 18  2  0
  7 15  4  0
  7 16  1  0
  7 27  4  0
  8 18  1  0
 10 18  1  0
 10 20  1  0
 11 15  4  0
 11 26  1  0
 13 22  4  0
 16 19  1  0
 16 20  2  0
 17 19  4  0
 17 21  4  0
 19 22  4  0
 20 28  1  0
 25 27  4  0
M  END
$$$$

 Created by Python create_sdf_string function

 28 30  0  0  0  0  0  0  0  0999 V2000
   11.4592   11.2893   18.7941 C   0  0  0  0  0  0  0  0  0  0  0  0
    3.4202    7.9009   20.3866 C   0  0  0  0  0  0  0  0  0  0  0  0
   13.5280   10.3522   19.3586 C   0  0  0  0  0  0  0  0  0  0  0  0
    9.6923    5.6468   22.7891 C   0  0  0  0  0  0  0  0  0  0  0  0
   11.7756   10.2554   20.8841 N   0  0  0  0  0  0  0  0  0  0  0  0
    8.9876   11.9370   19.8757 O   0  0  0  0  0  0  0  0  0  0  0  0
    6.0167    8.4478   21.1089 C   0  0  0  0  0  0  0  0  0  0  0  0
   11.0002   10.8890   20.0262 C   0  0  0  0  0  0  0  0  0  0  0  0
    2.1721    7.7393   20.0315 O   0  0  0  0  0  0  0  0  0  0  0  0
    9.1107   10.3880   21.3769 N   0  0  0  0  0  0  0  0  0  0  0  0
    3.9102    9.2008   20.3124 C   0  0  0  0  0  0  0  0  0  0  0  0
   12.7292   10.9960   18.4597 C   0  0  0  0  0  0  0  0  0  0  0  0
    9.3798    6.6793   23.6625 C   0  0  0  0  0  0  0  0  0  0  0  0
   14.7425   10.0739   19.0802 O   0  0  0  0  0  0  0  0  0  0  0  0
    5.1894    9.4673   20.7118 C   0  0  0  0  0  0  0  0  0  0  0  0
    7.3773    8.8224   21.4870 C   0  0  0  0  0  0  0  0  0  0  0  0
    8.4391    6.6439   21.0235 C   0  0  0  0  0  0  0  0  0  0  0  0
    9.6494   11.1353   20.4167 C   0  0  0  0  0  0  0  0  0  0  0  0
    8.1431    7.6829   21.9046 C   0  0  0  0  0  0  0  0  0  0  0  0
    7.7796   10.1314   21.5115 N   0  0  0  0  0  0  0  0  0  0  0  0
    9.2768    5.6183   21.4437 C   0  0  0  0  0  0  0  0  0  0  0  0
    8.6315    7.7322   23.1768 C   0  0  0  0  0  0  0  0  0  0  0  0
   13.0537    9.9821   20.5781 C   0  0  0  0  0  0  0  0  0  0  0  0
   10.3850    4.6575   23.2386 O   0  0  0  0  0  0  0  0  0  0  0  0
    4.2069    6.8450   20.7994 C   0  0  0  0  0  0  0  0  0  0  0  0
    3.0726   10.1043   19.8522 O   0  0  0  0  0  0  0  0  0  0  0  0
    5.5057    7.1196   21.1155 C   0  0  0  0  0  0  0  0  0  0  0  0
    7.0367   11.0229   21.9948 O   0  0  0  0  0  0  0  0  0  0  0  0
  1  8  4  0
  1 12  4  0
  2  9  1  0
  2 11  4  0
  2 25  4  0
  3 12  4  0
  3 14  1  0
  3 23  4  0
  4 13  4  0
  4 21  4  0
  4 24  1  0
  5  8  4  0
  5 23  4  0
  6 18  2  0
  7 15  4  0
  7 16  1  0
  7 27  4  0
  8 18  1  0
 10 18  1  0
 10 20  1  0
 11 15  4  0
 11 26  1  0
 13 22  4  0
 16 19  1  0
 16 20  2  0
 17 19  4  0
 17 21  4  0
 19 22  4  0
 20 28  1  0
 25 27  4  0
M  END
$$$$

 Created by Python create_sdf_string function

 28 30  0  0  0  0  0  0  0  0999 V2000
   11.4592   11.2893   18.7941 C   0  0  0  0  0  0  0  0  0  0  0  0
    3.4202    7.9009   20.3866 C   0  0  0  0  0  0  0  0  0  0  0  0
   13.5280   10.3522   19.3586 C   0  0  0  0  0  0  0  0  0  0  0  0
    9.6923    5.6468   22.7891 C   0  0  0  0  0  0  0  0  0  0  0  0
   11.7756   10.2554   20.8841 N   0  0  0  0  0  0  0  0  0  0  0  0
    8.9876   11.9370   19.8757 O   0  0  0  0  0  0  0  0  0  0  0  0
    6.0167    8.4478   21.1089 C   0  0  0  0  0  0  0  0  0  0  0  0
   11.0002   10.8890   20.0262 C   0  0  0  0  0  0  0  0  0  0  0  0
    2.1721    7.7393   20.0315 O   0  0  0  0  0  0  0  0  0  0  0  0
    9.1107   10.3880   21.3769 N   0  0  0  0  0  0  0  0  0  0  0  0
    3.9102    9.2008   20.3124 C   0  0  0  0  0  0  0  0  0  0  0  0
   12.7292   10.9960   18.4597 C   0  0  0  0  0  0  0  0  0  0  0  0
    9.3798    6.6793   23.6625 C   0  0  0  0  0  0  0  0  0  0  0  0
   14.7425   10.0739   19.0802 O   0  0  0  0  0  0  0  0  0  0  0  0
    5.1894    9.4673   20.7118 C   0  0  0  0  0  0  0  0  0  0  0  0
    7.3773    8.8224   21.4870 C   0  0  0  0  0  0  0  0  0  0  0  0
    8.4391    6.6439   21.0235 C   0  0  0  0  0  0  0  0  0  0  0  0
    9.6494   11.1353   20.4167 C   0  0  0  0  0  0  0  0  0  0  0  0
    8.1431    7.6829   21.9046 C   0  0  0  0  0  0  0  0  0  0  0  0
    7.7796   10.1314   21.5115 N   0  0  0  0  0  0  0  0  0  0  0  0
    9.2768    5.6183   21.4437 C   0  0  0  0  0  0  0  0  0  0  0  0
    8.6315    7.7322   23.1768 C   0  0  0  0  0  0  0  0  0  0  0  0
   13.0537    9.9821   20.5781 C   0  0  0  0  0  0  0  0  0  0  0  0
   10.3850    4.6575   23.2386 O   0  0  0  0  0  0  0  0  0  0  0  0
    4.2069    6.8450   20.7994 C   0  0  0  0  0  0  0  0  0  0  0  0
    3.0726   10.1043   19.8522 O   0  0  0  0  0  0  0  0  0  0  0  0
    5.5057    7.1196   21.1155 C   0  0  0  0  0  0  0  0  0  0  0  0
    7.0367   11.0229   21.9948 O   0  0  0  0  0  0  0  0  0  0  0  0
  1  8  4  0
  1 12  4  0
  2  9  1  0
  2 11  4  0
  2 25  4  0
  3 12  4  0
  3 14  1  0
  3 23  4  0
  4 13  4  0
  4 21  4  0
  4 24  1  0
  5  8  4  0
  5 23  4  0
  6 18  2  0
  7 15  4  0
  7 16  1  0
  7 27  4  0
  8 18  1  0
 10 18  1  0
 10 20  1  0
 11 15  4  0
 11 26  1  0
 13 22  4  0
 16 19  1  0
 16 20  2  0
 17 19  4  0
 17 21  4  0
 19 22  4  0
 20 28  1  0
 25 27  4  0
M  END
$$$$

 Created by Python create_sdf_string function

 28 30  0  0  0  0  0  0  0  0999 V2000
   11.4592   11.2893   18.7941 C   0  0  0  0  0  0  0  0  0  0  0  0
    3.4202    7.9009   20.3866 C   0  0  0  0  0  0  0  0  0  0  0  0
   13.5280   10.3522   19.3586 C   0  0  0  0  0  0  0  0  0  0  0  0
    9.6923    5.6468   22.7891 C   0  0  0  0  0  0  0  0  0  0  0  0
   11.7756   10.2554   20.8841 N   0  0  0  0  0  0  0  0  0  0  0  0
    8.9876   11.9370   19.8757 O   0  0  0  0  0  0  0  0  0  0  0  0
    6.0167    8.4478   21.1089 C   0  0  0  0  0  0  0  0  0  0  0  0
   11.0002   10.8890   20.0262 C   0  0  0  0  0  0  0  0  0  0  0  0
    2.1721    7.7393   20.0315 O   0  0  0  0  0  0  0  0  0  0  0  0
    9.1107   10.3880   21.3769 N   0  0  0  0  0  0  0  0  0  0  0  0
    3.9102    9.2008   20.3124 C   0  0  0  0  0  0  0  0  0  0  0  0
   12.7292   10.9960   18.4597 C   0  0  0  0  0  0  0  0  0  0  0  0
    9.3798    6.6793   23.6625 C   0  0  0  0  0  0  0  0  0  0  0  0
   14.7425   10.0739   19.0802 O   0  0  0  0  0  0  0  0  0  0  0  0
    5.1894    9.4673   20.7118 C   0  0  0  0  0  0  0  0  0  0  0  0
    7.3773    8.8224   21.4870 C   0  0  0  0  0  0  0  0  0  0  0  0
    8.4391    6.6439   21.0235 C   0  0  0  0  0  0  0  0  0  0  0  0
    9.6494   11.1353   20.4167 C   0  0  0  0  0  0  0  0  0  0  0  0
    8.1431    7.6829   21.9046 C   0  0  0  0  0  0  0  0  0  0  0  0
    7.7796   10.1314   21.5115 N   0  0  0  0  0  0  0  0  0  0  0  0
    9.2768    5.6183   21.4437 C   0  0  0  0  0  0  0  0  0  0  0  0
    8.6315    7.7322   23.1768 C   0  0  0  0  0  0  0  0  0  0  0  0
   13.0537    9.9821   20.5781 C   0  0  0  0  0  0  0  0  0  0  0  0
   10.3850    4.6575   23.2386 O   0  0  0  0  0  0  0  0  0  0  0  0
    4.2069    6.8450   20.7994 C   0  0  0  0  0  0  0  0  0  0  0  0
    3.0726   10.1043   19.8522 O   0  0  0  0  0  0  0  0  0  0  0  0
    5.5057    7.1196   21.1155 C   0  0  0  0  0  0  0  0  0  0  0  0
    7.0367   11.0229   21.9948 O   0  0  0  0  0  0  0  0  0  0  0  0
  1  8  4  0
  1 12  4  0
  2  9  1  0
  2 11  4  0
  2 25  4  0
  3 12  4  0
  3 14  1  0
  3 23  4  0
  4 13  4  0
  4 21  4  0
  4 24  1  0
  5  8  4  0
  5 23  4  0
  6 18  2  0
  7 15  4  0
  7 16  1  0
  7 27  4  0
  8 18  1  0
 10 18  1  0
 10 20  1  0
 11 15  4  0
 11 26  1  0
 13 22  4  0
 16 19  1  0
 16 20  2  0
 17 19  4  0
 17 21  4  0
 19 22  4  0
 20 28  1  0
 25 27  4  0
M  END
$$$$

 Created by Python create_sdf_string function

 28 30  0  0  0  0  0  0  0  0999 V2000
   11.4592   11.2893   18.7941 C   0  0  0  0  0  0  0  0  0  0  0  0
    3.4202    7.9009   20.3866 C   0  0  0  0  0  0  0  0  0  0  0  0
   13.5280   10.3522   19.3586 C   0  0  0  0  0  0  0  0  0  0  0  0
    9.6923    5.6468   22.7891 C   0  0  0  0  0  0  0  0  0  0  0  0
   11.7756   10.2554   20.8841 N   0  0  0  0  0  0  0  0  0  0  0  0
    8.9876   11.9370   19.8757 O   0  0  0  0  0  0  0  0  0  0  0  0
    6.0167    8.4478   21.1089 C   0  0  0  0  0  0  0  0  0  0  0  0
   11.0002   10.8890   20.0262 C   0  0  0  0  0  0  0  0  0  0  0  0
    2.1721    7.7393   20.0315 O   0  0  0  0  0  0  0  0  0  0  0  0
    9.1107   10.3880   21.3769 N   0  0  0  0  0  0  0  0  0  0  0  0
    3.9102    9.2008   20.3124 C   0  0  0  0  0  0  0  0  0  0  0  0
   12.7292   10.9960   18.4597 C   0  0  0  0  0  0  0  0  0  0  0  0
    9.3798    6.6793   23.6625 C   0  0  0  0  0  0  0  0  0  0  0  0
   14.7425   10.0739   19.0802 O   0  0  0  0  0  0  0  0  0  0  0  0
    5.1894    9.4673   20.7118 C   0  0  0  0  0  0  0  0  0  0  0  0
    7.3773    8.8224   21.4870 C   0  0  0  0  0  0  0  0  0  0  0  0
    8.4391    6.6439   21.0235 C   0  0  0  0  0  0  0  0  0  0  0  0
    9.6494   11.1353   20.4167 C   0  0  0  0  0  0  0  0  0  0  0  0
    8.1431    7.6829   21.9046 C   0  0  0  0  0  0  0  0  0  0  0  0
    7.7796   10.1314   21.5115 N   0  0  0  0  0  0  0  0  0  0  0  0
    9.2768    5.6183   21.4437 C   0  0  0  0  0  0  0  0  0  0  0  0
    8.6315    7.7322   23.1768 C   0  0  0  0  0  0  0  0  0  0  0  0
   13.0537    9.9821   20.5781 C   0  0  0  0  0  0  0  0  0  0  0  0
   10.3850    4.6575   23.2386 O   0  0  0  0  0  0  0  0  0  0  0  0
    4.2069    6.8450   20.7994 C   0  0  0  0  0  0  0  0  0  0  0  0
    3.0726   10.1043   19.8522 O   0  0  0  0  0  0  0  0  0  0  0  0
    5.5057    7.1196   21.1155 C   0  0  0  0  0  0  0  0  0  0  0  0
    7.0367   11.0229   21.9948 O   0  0  0  0  0  0  0  0  0  0  0  0
  1  8  4  0
  1 12  4  0
  2  9  1  0
  2 11  4  0
  2 25  4  0
  3 12  4  0
  3 14  1  0
  3 23  4  0
  4 13  4  0
  4 21  4  0
  4 24  1  0
  5  8  4  0
  5 23  4  0
  6 18  2  0
  7 15  4  0
  7 16  1  0
  7 27  4  0
  8 18  1  0
 10 18  1  0
 10 20  1  0
 11 15  4  0
 11 26  1  0
 13 22  4  0
 16 19  1  0
 16 20  2  0
 17 19  4  0
 17 21  4  0
 19 22  4  0
 20 28  1  0
 25 27  4  0
M  END
$$$$

 Created by Python create_sdf_string function

 28 30  0  0  0  0  0  0  0  0999 V2000
   11.4592   11.2893   18.7941 C   0  0  0  0  0  0  0  0  0  0  0  0
    3.4202    7.9009   20.3866 C   0  0  0  0  0  0  0  0  0  0  0  0
   13.5280   10.3522   19.3586 C   0  0  0  0  0  0  0  0  0  0  0  0
    9.6923    5.6468   22.7891 C   0  0  0  0  0  0  0  0  0  0  0  0
   11.7756   10.2554   20.8841 N   0  0  0  0  0  0  0  0  0  0  0  0
    8.9876   11.9370   19.8757 O   0  0  0  0  0  0  0  0  0  0  0  0
    6.0167    8.4478   21.1089 C   0  0  0  0  0  0  0  0  0  0  0  0
   11.0002   10.8890   20.0262 C   0  0  0  0  0  0  0  0  0  0  0  0
    2.1721    7.7393   20.0315 O   0  0  0  0  0  0  0  0  0  0  0  0
    9.1107   10.3880   21.3769 N   0  0  0  0  0  0  0  0  0  0  0  0
    3.9102    9.2008   20.3124 C   0  0  0  0  0  0  0  0  0  0  0  0
   12.7292   10.9960   18.4597 C   0  0  0  0  0  0  0  0  0  0  0  0
    9.3798    6.6793   23.6625 C   0  0  0  0  0  0  0  0  0  0  0  0
   14.7425   10.0739   19.0802 O   0  0  0  0  0  0  0  0  0  0  0  0
    5.1894    9.4673   20.7118 C   0  0  0  0  0  0  0  0  0  0  0  0
    7.3773    8.8224   21.4870 C   0  0  0  0  0  0  0  0  0  0  0  0
    8.4391    6.6439   21.0235 C   0  0  0  0  0  0  0  0  0  0  0  0
    9.6494   11.1353   20.4167 C   0  0  0  0  0  0  0  0  0  0  0  0
    8.1431    7.6829   21.9046 C   0  0  0  0  0  0  0  0  0  0  0  0
    7.7796   10.1314   21.5115 N   0  0  0  0  0  0  0  0  0  0  0  0
    9.2768    5.6183   21.4437 C   0  0  0  0  0  0  0  0  0  0  0  0
    8.6315    7.7322   23.1768 C   0  0  0  0  0  0  0  0  0  0  0  0
   13.0537    9.9821   20.5781 C   0  0  0  0  0  0  0  0  0  0  0  0
   10.3850    4.6575   23.2386 O   0  0  0  0  0  0  0  0  0  0  0  0
    4.2069    6.8450   20.7994 C   0  0  0  0  0  0  0  0  0  0  0  0
    3.0726   10.1043   19.8522 O   0  0  0  0  0  0  0  0  0  0  0  0
    5.5057    7.1196   21.1155 C   0  0  0  0  0  0  0  0  0  0  0  0
    7.0367   11.0229   21.9948 O   0  0  0  0  0  0  0  0  0  0  0  0
  1  8  4  0
  1 12  4  0
  2  9  1  0
  2 11  4  0
  2 25  4  0
  3 12  4  0
  3 14  1  0
  3 23  4  0
  4 13  4  0
  4 21  4  0
  4 24  1  0
  5  8  4  0
  5 23  4  0
  6 18  2  0
  7 15  4  0
  7 16  1  0
  7 27  4  0
  8 18  1  0
 10 18  1  0
 10 20  1  0
 11 15  4  0
 11 26  1  0
 13 22  4  0
 16 19  1  0
 16 20  2  0
 17 19  4  0
 17 21  4  0
 19 22  4  0
 20 28  1  0
 25 27  4  0
M  END
$$$$

 Created by Python create_sdf_string function

 28 30  0  0  0  0  0  0  0  0999 V2000
   11.4592   11.2893   18.7941 C   0  0  0  0  0  0  0  0  0  0  0  0
    3.4202    7.9009   20.3866 C   0  0  0  0  0  0  0  0  0  0  0  0
   13.5280   10.3522   19.3586 C   0  0  0  0  0  0  0  0  0  0  0  0
    9.6923    5.6468   22.7891 C   0  0  0  0  0  0  0  0  0  0  0  0
   11.7756   10.2554   20.8841 N   0  0  0  0  0  0  0  0  0  0  0  0
    8.9876   11.9370   19.8757 O   0  0  0  0  0  0  0  0  0  0  0  0
    6.0167    8.4478   21.1089 C   0  0  0  0  0  0  0  0  0  0  0  0
   11.0002   10.8890   20.0262 C   0  0  0  0  0  0  0  0  0  0  0  0
    2.1721    7.7393   20.0315 O   0  0  0  0  0  0  0  0  0  0  0  0
    9.1107   10.3880   21.3769 N   0  0  0  0  0  0  0  0  0  0  0  0
    3.9102    9.2008   20.3124 C   0  0  0  0  0  0  0  0  0  0  0  0
   12.7292   10.9960   18.4597 C   0  0  0  0  0  0  0  0  0  0  0  0
    9.3798    6.6793   23.6625 C   0  0  0  0  0  0  0  0  0  0  0  0
   14.7425   10.0739   19.0802 O   0  0  0  0  0  0  0  0  0  0  0  0
    5.1894    9.4673   20.7118 C   0  0  0  0  0  0  0  0  0  0  0  0
    7.3773    8.8224   21.4870 C   0  0  0  0  0  0  0  0  0  0  0  0
    8.4391    6.6439   21.0235 C   0  0  0  0  0  0  0  0  0  0  0  0
    9.6494   11.1353   20.4167 C   0  0  0  0  0  0  0  0  0  0  0  0
    8.1431    7.6829   21.9046 C   0  0  0  0  0  0  0  0  0  0  0  0
    7.7796   10.1314   21.5115 N   0  0  0  0  0  0  0  0  0  0  0  0
    9.2768    5.6183   21.4437 C   0  0  0  0  0  0  0  0  0  0  0  0
    8.6315    7.7322   23.1768 C   0  0  0  0  0  0  0  0  0  0  0  0
   13.0537    9.9821   20.5781 C   0  0  0  0  0  0  0  0  0  0  0  0
   10.3850    4.6575   23.2386 O   0  0  0  0  0  0  0  0  0  0  0  0
    4.2069    6.8450   20.7994 C   0  0  0  0  0  0  0  0  0  0  0  0
    3.0726   10.1043   19.8522 O   0  0  0  0  0  0  0  0  0  0  0  0
    5.5057    7.1196   21.1155 C   0  0  0  0  0  0  0  0  0  0  0  0
    7.0367   11.0229   21.9948 O   0  0  0  0  0  0  0  0  0  0  0  0
  1  8  4  0
  1 12  4  0
  2  9  1  0
  2 11  4  0
  2 25  4  0
  3 12  4  0
  3 14  1  0
  3 23  4  0
  4 13  4  0
  4 21  4  0
  4 24  1  0
  5  8  4  0
  5 23  4  0
  6 18  2  0
  7 15  4  0
  7 16  1  0
  7 27  4  0
  8 18  1  0
 10 18  1  0
 10 20  1  0
 11 15  4  0
 11 26  1  0
 13 22  4  0
 16 19  1  0
 16 20  2  0
 17 19  4  0
 17 21  4  0
 19 22  4  0
 20 28  1  0
 25 27  4  0
M  END
$$$$

 Created by Python create_sdf_string function

 28 30  0  0  0  0  0  0  0  0999 V2000
   11.4592   11.2893   18.7941 C   0  0  0  0  0  0  0  0  0  0  0  0
    3.4202    7.9009   20.3866 C   0  0  0  0  0  0  0  0  0  0  0  0
   13.5280   10.3522   19.3586 C   0  0  0  0  0  0  0  0  0  0  0  0
    9.6923    5.6468   22.7891 C   0  0  0  0  0  0  0  0  0  0  0  0
   11.7756   10.2554   20.8841 N   0  0  0  0  0  0  0  0  0  0  0  0
    8.9876   11.9370   19.8757 O   0  0  0  0  0  0  0  0  0  0  0  0
    6.0167    8.4478   21.1089 C   0  0  0  0  0  0  0  0  0  0  0  0
   11.0002   10.8890   20.0262 C   0  0  0  0  0  0  0  0  0  0  0  0
    2.1721    7.7393   20.0315 O   0  0  0  0  0  0  0  0  0  0  0  0
    9.1107   10.3880   21.3769 N   0  0  0  0  0  0  0  0  0  0  0  0
    3.9102    9.2008   20.3124 C   0  0  0  0  0  0  0  0  0  0  0  0
   12.7292   10.9960   18.4597 C   0  0  0  0  0  0  0  0  0  0  0  0
    9.3798    6.6793   23.6625 C   0  0  0  0  0  0  0  0  0  0  0  0
   14.7425   10.0739   19.0802 O   0  0  0  0  0  0  0  0  0  0  0  0
    5.1894    9.4673   20.7118 C   0  0  0  0  0  0  0  0  0  0  0  0
    7.3773    8.8224   21.4870 C   0  0  0  0  0  0  0  0  0  0  0  0
    8.4391    6.6439   21.0235 C   0  0  0  0  0  0  0  0  0  0  0  0
    9.6494   11.1353   20.4167 C   0  0  0  0  0  0  0  0  0  0  0  0
    8.1431    7.6829   21.9046 C   0  0  0  0  0  0  0  0  0  0  0  0
    7.7796   10.1314   21.5115 N   0  0  0  0  0  0  0  0  0  0  0  0
    9.2768    5.6183   21.4437 C   0  0  0  0  0  0  0  0  0  0  0  0
    8.6315    7.7322   23.1768 C   0  0  0  0  0  0  0  0  0  0  0  0
   13.0537    9.9821   20.5781 C   0  0  0  0  0  0  0  0  0  0  0  0
   10.3850    4.6575   23.2386 O   0  0  0  0  0  0  0  0  0  0  0  0
    4.2069    6.8450   20.7994 C   0  0  0  0  0  0  0  0  0  0  0  0
    3.0726   10.1043   19.8522 O   0  0  0  0  0  0  0  0  0  0  0  0
    5.5057    7.1196   21.1155 C   0  0  0  0  0  0  0  0  0  0  0  0
    7.0367   11.0229   21.9948 O   0  0  0  0  0  0  0  0  0  0  0  0
  1  8  4  0
  1 12  4  0
  2  9  1  0
  2 11  4  0
  2 25  4  0
  3 12  4  0
  3 14  1  0
  3 23  4  0
  4 13  4  0
  4 21  4  0
  4 24  1  0
  5  8  4  0
  5 23  4  0
  6 18  2  0
  7 15  4  0
  7 16  1  0
  7 27  4  0
  8 18  1  0
 10 18  1  0
 10 20  1  0
 11 15  4  0
 11 26  1  0
 13 22  4  0
 16 19  1  0
 16 20  2  0
 17 19  4  0
 17 21  4  0
 19 22  4  0
 20 28  1  0
 25 27  4  0
M  END
$$$$

 Created by Python create_sdf_string function

 28 30  0  0  0  0  0  0  0  0999 V2000
   11.4592   11.2893   18.7941 C   0  0  0  0  0  0  0  0  0  0  0  0
    3.4202    7.9009   20.3866 C   0  0  0  0  0  0  0  0  0  0  0  0
   13.5280   10.3522   19.3586 C   0  0  0  0  0  0  0  0  0  0  0  0
    9.6923    5.6468   22.7891 C   0  0  0  0  0  0  0  0  0  0  0  0
   11.7756   10.2554   20.8841 N   0  0  0  0  0  0  0  0  0  0  0  0
    8.9876   11.9370   19.8757 O   0  0  0  0  0  0  0  0  0  0  0  0
    6.0167    8.4478   21.1089 C   0  0  0  0  0  0  0  0  0  0  0  0
   11.0002   10.8890   20.0262 C   0  0  0  0  0  0  0  0  0  0  0  0
    2.1721    7.7393   20.0315 O   0  0  0  0  0  0  0  0  0  0  0  0
    9.1107   10.3880   21.3769 N   0  0  0  0  0  0  0  0  0  0  0  0
    3.9102    9.2008   20.3124 C   0  0  0  0  0  0  0  0  0  0  0  0
   12.7292   10.9960   18.4597 C   0  0  0  0  0  0  0  0  0  0  0  0
    9.3798    6.6793   23.6625 C   0  0  0  0  0  0  0  0  0  0  0  0
   14.7425   10.0739   19.0802 O   0  0  0  0  0  0  0  0  0  0  0  0
    5.1894    9.4673   20.7118 C   0  0  0  0  0  0  0  0  0  0  0  0
    7.3773    8.8224   21.4870 C   0  0  0  0  0  0  0  0  0  0  0  0
    8.4391    6.6439   21.0235 C   0  0  0  0  0  0  0  0  0  0  0  0
    9.6494   11.1353   20.4167 C   0  0  0  0  0  0  0  0  0  0  0  0
    8.1431    7.6829   21.9046 C   0  0  0  0  0  0  0  0  0  0  0  0
    7.7796   10.1314   21.5115 N   0  0  0  0  0  0  0  0  0  0  0  0
    9.2768    5.6183   21.4437 C   0  0  0  0  0  0  0  0  0  0  0  0
    8.6315    7.7322   23.1768 C   0  0  0  0  0  0  0  0  0  0  0  0
   13.0537    9.9821   20.5781 C   0  0  0  0  0  0  0  0  0  0  0  0
   10.3850    4.6575   23.2386 O   0  0  0  0  0  0  0  0  0  0  0  0
    4.2069    6.8450   20.7994 C   0  0  0  0  0  0  0  0  0  0  0  0
    3.0726   10.1043   19.8522 O   0  0  0  0  0  0  0  0  0  0  0  0
    5.5057    7.1196   21.1155 C   0  0  0  0  0  0  0  0  0  0  0  0
    7.0367   11.0229   21.9948 O   0  0  0  0  0  0  0  0  0  0  0  0
  1  8  4  0
  1 12  4  0
  2  9  1  0
  2 11  4  0
  2 25  4  0
  3 12  4  0
  3 14  1  0
  3 23  4  0
  4 13  4  0
  4 21  4  0
  4 24  1  0
  5  8  4  0
  5 23  4  0
  6 18  2  0
  7 15  4  0
  7 16  1  0
  7 27  4  0
  8 18  1  0
 10 18  1  0
 10 20  1  0
 11 15  4  0
 11 26  1  0
 13 22  4  0
 16 19  1  0
 16 20  2  0
 17 19  4  0
 17 21  4  0
 19 22  4  0
 20 28  1  0
 25 27  4  0
M  END
$$$$

 Created by Python create_sdf_string function

 28 30  0  0  0  0  0  0  0  0999 V2000
   11.4592   11.2893   18.7941 C   0  0  0  0  0  0  0  0  0  0  0  0
    3.4202    7.9009   20.3866 C   0  0  0  0  0  0  0  0  0  0  0  0
   13.5280   10.3522   19.3586 C   0  0  0  0  0  0  0  0  0  0  0  0
    9.6923    5.6468   22.7891 C   0  0  0  0  0  0  0  0  0  0  0  0
   11.7756   10.2554   20.8841 N   0  0  0  0  0  0  0  0  0  0  0  0
    8.9876   11.9370   19.8757 O   0  0  0  0  0  0  0  0  0  0  0  0
    6.0167    8.4478   21.1089 C   0  0  0  0  0  0  0  0  0  0  0  0
   11.0002   10.8890   20.0262 C   0  0  0  0  0  0  0  0  0  0  0  0
    2.1721    7.7393   20.0315 O   0  0  0  0  0  0  0  0  0  0  0  0
    9.1107   10.3880   21.3769 N   0  0  0  0  0  0  0  0  0  0  0  0
    3.9102    9.2008   20.3124 C   0  0  0  0  0  0  0  0  0  0  0  0
   12.7292   10.9960   18.4597 C   0  0  0  0  0  0  0  0  0  0  0  0
    9.3798    6.6793   23.6625 C   0  0  0  0  0  0  0  0  0  0  0  0
   14.7425   10.0739   19.0802 O   0  0  0  0  0  0  0  0  0  0  0  0
    5.1894    9.4673   20.7118 C   0  0  0  0  0  0  0  0  0  0  0  0
    7.3773    8.8224   21.4870 C   0  0  0  0  0  0  0  0  0  0  0  0
    8.4391    6.6439   21.0235 C   0  0  0  0  0  0  0  0  0  0  0  0
    9.6494   11.1353   20.4167 C   0  0  0  0  0  0  0  0  0  0  0  0
    8.1431    7.6829   21.9046 C   0  0  0  0  0  0  0  0  0  0  0  0
    7.7796   10.1314   21.5115 N   0  0  0  0  0  0  0  0  0  0  0  0
    9.2768    5.6183   21.4437 C   0  0  0  0  0  0  0  0  0  0  0  0
    8.6315    7.7322   23.1768 C   0  0  0  0  0  0  0  0  0  0  0  0
   13.0537    9.9821   20.5781 C   0  0  0  0  0  0  0  0  0  0  0  0
   10.3850    4.6575   23.2386 O   0  0  0  0  0  0  0  0  0  0  0  0
    4.2069    6.8450   20.7994 C   0  0  0  0  0  0  0  0  0  0  0  0
    3.0726   10.1043   19.8522 O   0  0  0  0  0  0  0  0  0  0  0  0
    5.5057    7.1196   21.1155 C   0  0  0  0  0  0  0  0  0  0  0  0
    7.0367   11.0229   21.9948 O   0  0  0  0  0  0  0  0  0  0  0  0
  1  8  4  0
  1 12  4  0
  2  9  1  0
  2 11  4  0
  2 25  4  0
  3 12  4  0
  3 14  1  0
  3 23  4  0
  4 13  4  0
  4 21  4  0
  4 24  1  0
  5  8  4  0
  5 23  4  0
  6 18  2  0
  7 15  4  0
  7 16  1  0
  7 27  4  0
  8 18  1  0
 10 18  1  0
 10 20  1  0
 11 15  4  0
 11 26  1  0
 13 22  4  0
 16 19  1  0
 16 20  2  0
 17 19  4  0
 17 21  4  0
 19 22  4  0
 20 28  1  0
 25 27  4  0
M  END
$$$$

 Created by Python create_sdf_string function

 28 30  0  0  0  0  0  0  0  0999 V2000
   11.4592   11.2893   18.7941 C   0  0  0  0  0  0  0  0  0  0  0  0
    3.4202    7.9009   20.3866 C   0  0  0  0  0  0  0  0  0  0  0  0
   13.5280   10.3522   19.3586 C   0  0  0  0  0  0  0  0  0  0  0  0
    9.6923    5.6468   22.7891 C   0  0  0  0  0  0  0  0  0  0  0  0
   11.7756   10.2554   20.8841 N   0  0  0  0  0  0  0  0  0  0  0  0
    8.9876   11.9370   19.8757 O   0  0  0  0  0  0  0  0  0  0  0  0
    6.0167    8.4478   21.1089 C   0  0  0  0  0  0  0  0  0  0  0  0
   11.0002   10.8890   20.0262 C   0  0  0  0  0  0  0  0  0  0  0  0
    2.1721    7.7393   20.0315 O   0  0  0  0  0  0  0  0  0  0  0  0
    9.1107   10.3880   21.3769 N   0  0  0  0  0  0  0  0  0  0  0  0
    3.9102    9.2008   20.3124 C   0  0  0  0  0  0  0  0  0  0  0  0
   12.7292   10.9960   18.4597 C   0  0  0  0  0  0  0  0  0  0  0  0
    9.3798    6.6793   23.6625 C   0  0  0  0  0  0  0  0  0  0  0  0
   14.7425   10.0739   19.0802 O   0  0  0  0  0  0  0  0  0  0  0  0
    5.1894    9.4673   20.7118 C   0  0  0  0  0  0  0  0  0  0  0  0
    7.3773    8.8224   21.4870 C   0  0  0  0  0  0  0  0  0  0  0  0
    8.4391    6.6439   21.0235 C   0  0  0  0  0  0  0  0  0  0  0  0
    9.6494   11.1353   20.4167 C   0  0  0  0  0  0  0  0  0  0  0  0
    8.1431    7.6829   21.9046 C   0  0  0  0  0  0  0  0  0  0  0  0
    7.7796   10.1314   21.5115 N   0  0  0  0  0  0  0  0  0  0  0  0
    9.2768    5.6183   21.4437 C   0  0  0  0  0  0  0  0  0  0  0  0
    8.6315    7.7322   23.1768 C   0  0  0  0  0  0  0  0  0  0  0  0
   13.0537    9.9821   20.5781 C   0  0  0  0  0  0  0  0  0  0  0  0
   10.3850    4.6575   23.2386 O   0  0  0  0  0  0  0  0  0  0  0  0
    4.2069    6.8450   20.7994 C   0  0  0  0  0  0  0  0  0  0  0  0
    3.0726   10.1043   19.8522 O   0  0  0  0  0  0  0  0  0  0  0  0
    5.5057    7.1196   21.1155 C   0  0  0  0  0  0  0  0  0  0  0  0
    7.0367   11.0229   21.9948 O   0  0  0  0  0  0  0  0  0  0  0  0
  1  8  4  0
  1 12  4  0
  2  9  1  0
  2 11  4  0
  2 25  4  0
  3 12  4  0
  3 14  1  0
  3 23  4  0
  4 13  4  0
  4 21  4  0
  4 24  1  0
  5  8  4  0
  5 23  4  0
  6 18  2  0
  7 15  4  0
  7 16  1  0
  7 27  4  0
  8 18  1  0
 10 18  1  0
 10 20  1  0
 11 15  4  0
 11 26  1  0
 13 22  4  0
 16 19  1  0
 16 20  2  0
 17 19  4  0
 17 21  4  0
 19 22  4  0
 20 28  1  0
 25 27  4  0
M  END
$$$$

 Created by Python create_sdf_string function

 28 30  0  0  0  0  0  0  0  0999 V2000
   11.4592   11.2893   18.7941 C   0  0  0  0  0  0  0  0  0  0  0  0
    3.4202    7.9009   20.3866 C   0  0  0  0  0  0  0  0  0  0  0  0
   13.5280   10.3522   19.3586 C   0  0  0  0  0  0  0  0  0  0  0  0
    9.6923    5.6468   22.7891 C   0  0  0  0  0  0  0  0  0  0  0  0
   11.7756   10.2554   20.8841 N   0  0  0  0  0  0  0  0  0  0  0  0
    8.9876   11.9370   19.8757 O   0  0  0  0  0  0  0  0  0  0  0  0
    6.0167    8.4478   21.1089 C   0  0  0  0  0  0  0  0  0  0  0  0
   11.0002   10.8890   20.0262 C   0  0  0  0  0  0  0  0  0  0  0  0
    2.1721    7.7393   20.0315 O   0  0  0  0  0  0  0  0  0  0  0  0
    9.1107   10.3880   21.3769 N   0  0  0  0  0  0  0  0  0  0  0  0
    3.9102    9.2008   20.3124 C   0  0  0  0  0  0  0  0  0  0  0  0
   12.7292   10.9960   18.4597 C   0  0  0  0  0  0  0  0  0  0  0  0
    9.3798    6.6793   23.6625 C   0  0  0  0  0  0  0  0  0  0  0  0
   14.7425   10.0739   19.0802 O   0  0  0  0  0  0  0  0  0  0  0  0
    5.1894    9.4673   20.7118 C   0  0  0  0  0  0  0  0  0  0  0  0
    7.3773    8.8224   21.4870 C   0  0  0  0  0  0  0  0  0  0  0  0
    8.4391    6.6439   21.0235 C   0  0  0  0  0  0  0  0  0  0  0  0
    9.6494   11.1353   20.4167 C   0  0  0  0  0  0  0  0  0  0  0  0
    8.1431    7.6829   21.9046 C   0  0  0  0  0  0  0  0  0  0  0  0
    7.7796   10.1314   21.5115 N   0  0  0  0  0  0  0  0  0  0  0  0
    9.2768    5.6183   21.4437 C   0  0  0  0  0  0  0  0  0  0  0  0
    8.6315    7.7322   23.1768 C   0  0  0  0  0  0  0  0  0  0  0  0
   13.0537    9.9821   20.5781 C   0  0  0  0  0  0  0  0  0  0  0  0
   10.3850    4.6575   23.2386 O   0  0  0  0  0  0  0  0  0  0  0  0
    4.2069    6.8450   20.7994 C   0  0  0  0  0  0  0  0  0  0  0  0
    3.0726   10.1043   19.8522 O   0  0  0  0  0  0  0  0  0  0  0  0
    5.5057    7.1196   21.1155 C   0  0  0  0  0  0  0  0  0  0  0  0
    7.0367   11.0229   21.9948 O   0  0  0  0  0  0  0  0  0  0  0  0
  1  8  4  0
  1 12  4  0
  2  9  1  0
  2 11  4  0
  2 25  4  0
  3 12  4  0
  3 14  1  0
  3 23  4  0
  4 13  4  0
  4 21  4  0
  4 24  1  0
  5  8  4  0
  5 23  4  0
  6 18  2  0
  7 15  4  0
  7 16  1  0
  7 27  4  0
  8 18  1  0
 10 18  1  0
 10 20  1  0
 11 15  4  0
 11 26  1  0
 13 22  4  0
 16 19  1  0
 16 20  2  0
 17 19  4  0
 17 21  4  0
 19 22  4  0
 20 28  1  0
 25 27  4  0
M  END
$$$$

 Created by Python create_sdf_string function

 28 30  0  0  0  0  0  0  0  0999 V2000
   11.4592   11.2893   18.7941 C   0  0  0  0  0  0  0  0  0  0  0  0
    3.4202    7.9009   20.3866 C   0  0  0  0  0  0  0  0  0  0  0  0
   13.5280   10.3522   19.3586 C   0  0  0  0  0  0  0  0  0  0  0  0
    9.6923    5.6468   22.7891 C   0  0  0  0  0  0  0  0  0  0  0  0
   11.7756   10.2554   20.8841 N   0  0  0  0  0  0  0  0  0  0  0  0
    8.9876   11.9370   19.8757 O   0  0  0  0  0  0  0  0  0  0  0  0
    6.0167    8.4478   21.1089 C   0  0  0  0  0  0  0  0  0  0  0  0
   11.0002   10.8890   20.0262 C   0  0  0  0  0  0  0  0  0  0  0  0
    2.1721    7.7393   20.0315 O   0  0  0  0  0  0  0  0  0  0  0  0
    9.1107   10.3880   21.3769 N   0  0  0  0  0  0  0  0  0  0  0  0
    3.9102    9.2008   20.3124 C   0  0  0  0  0  0  0  0  0  0  0  0
   12.7292   10.9960   18.4597 C   0  0  0  0  0  0  0  0  0  0  0  0
    9.3798    6.6793   23.6625 C   0  0  0  0  0  0  0  0  0  0  0  0
   14.7425   10.0739   19.0802 O   0  0  0  0  0  0  0  0  0  0  0  0
    5.1894    9.4673   20.7118 C   0  0  0  0  0  0  0  0  0  0  0  0
    7.3773    8.8224   21.4870 C   0  0  0  0  0  0  0  0  0  0  0  0
    8.4391    6.6439   21.0235 C   0  0  0  0  0  0  0  0  0  0  0  0
    9.6494   11.1353   20.4167 C   0  0  0  0  0  0  0  0  0  0  0  0
    8.1431    7.6829   21.9046 C   0  0  0  0  0  0  0  0  0  0  0  0
    7.7796   10.1314   21.5115 N   0  0  0  0  0  0  0  0  0  0  0  0
    9.2768    5.6183   21.4437 C   0  0  0  0  0  0  0  0  0  0  0  0
    8.6315    7.7322   23.1768 C   0  0  0  0  0  0  0  0  0  0  0  0
   13.0537    9.9821   20.5781 C   0  0  0  0  0  0  0  0  0  0  0  0
   10.3850    4.6575   23.2386 O   0  0  0  0  0  0  0  0  0  0  0  0
    4.2069    6.8450   20.7994 C   0  0  0  0  0  0  0  0  0  0  0  0
    3.0726   10.1043   19.8522 O   0  0  0  0  0  0  0  0  0  0  0  0
    5.5057    7.1196   21.1155 C   0  0  0  0  0  0  0  0  0  0  0  0
    7.0367   11.0229   21.9948 O   0  0  0  0  0  0  0  0  0  0  0  0
  1  8  4  0
  1 12  4  0
  2  9  1  0
  2 11  4  0
  2 25  4  0
  3 12  4  0
  3 14  1  0
  3 23  4  0
  4 13  4  0
  4 21  4  0
  4 24  1  0
  5  8  4  0
  5 23  4  0
  6 18  2  0
  7 15  4  0
  7 16  1  0
  7 27  4  0
  8 18  1  0
 10 18  1  0
 10 20  1  0
 11 15  4  0
 11 26  1  0
 13 22  4  0
 16 19  1  0
 16 20  2  0
 17 19  4  0
 17 21  4  0
 19 22  4  0
 20 28  1  0
 25 27  4  0
M  END
$$$$

 Created by Python create_sdf_string function

 28 30  0  0  0  0  0  0  0  0999 V2000
   11.4592   11.2893   18.7941 C   0  0  0  0  0  0  0  0  0  0  0  0
    3.4202    7.9009   20.3866 C   0  0  0  0  0  0  0  0  0  0  0  0
   13.5280   10.3522   19.3586 C   0  0  0  0  0  0  0  0  0  0  0  0
    9.6923    5.6468   22.7891 C   0  0  0  0  0  0  0  0  0  0  0  0
   11.7756   10.2554   20.8841 N   0  0  0  0  0  0  0  0  0  0  0  0
    8.9876   11.9370   19.8757 O   0  0  0  0  0  0  0  0  0  0  0  0
    6.0167    8.4478   21.1089 C   0  0  0  0  0  0  0  0  0  0  0  0
   11.0002   10.8890   20.0262 C   0  0  0  0  0  0  0  0  0  0  0  0
    2.1721    7.7393   20.0315 O   0  0  0  0  0  0  0  0  0  0  0  0
    9.1107   10.3880   21.3769 N   0  0  0  0  0  0  0  0  0  0  0  0
    3.9102    9.2008   20.3124 C   0  0  0  0  0  0  0  0  0  0  0  0
   12.7292   10.9960   18.4597 C   0  0  0  0  0  0  0  0  0  0  0  0
    9.3798    6.6793   23.6625 C   0  0  0  0  0  0  0  0  0  0  0  0
   14.7425   10.0739   19.0802 O   0  0  0  0  0  0  0  0  0  0  0  0
    5.1894    9.4673   20.7118 C   0  0  0  0  0  0  0  0  0  0  0  0
    7.3773    8.8224   21.4870 C   0  0  0  0  0  0  0  0  0  0  0  0
    8.4391    6.6439   21.0235 C   0  0  0  0  0  0  0  0  0  0  0  0
    9.6494   11.1353   20.4167 C   0  0  0  0  0  0  0  0  0  0  0  0
    8.1431    7.6829   21.9046 C   0  0  0  0  0  0  0  0  0  0  0  0
    7.7796   10.1314   21.5115 N   0  0  0  0  0  0  0  0  0  0  0  0
    9.2768    5.6183   21.4437 C   0  0  0  0  0  0  0  0  0  0  0  0
    8.6315    7.7322   23.1768 C   0  0  0  0  0  0  0  0  0  0  0  0
   13.0537    9.9821   20.5781 C   0  0  0  0  0  0  0  0  0  0  0  0
   10.3850    4.6575   23.2386 O   0  0  0  0  0  0  0  0  0  0  0  0
    4.2069    6.8450   20.7994 C   0  0  0  0  0  0  0  0  0  0  0  0
    3.0726   10.1043   19.8522 O   0  0  0  0  0  0  0  0  0  0  0  0
    5.5057    7.1196   21.1155 C   0  0  0  0  0  0  0  0  0  0  0  0
    7.0367   11.0229   21.9948 O   0  0  0  0  0  0  0  0  0  0  0  0
  1  8  4  0
  1 12  4  0
  2  9  1  0
  2 11  4  0
  2 25  4  0
  3 12  4  0
  3 14  1  0
  3 23  4  0
  4 13  4  0
  4 21  4  0
  4 24  1  0
  5  8  4  0
  5 23  4  0
  6 18  2  0
  7 15  4  0
  7 16  1  0
  7 27  4  0
  8 18  1  0
 10 18  1  0
 10 20  1  0
 11 15  4  0
 11 26  1  0
 13 22  4  0
 16 19  1  0
 16 20  2  0
 17 19  4  0
 17 21  4  0
 19 22  4  0
 20 28  1  0
 25 27  4  0
M  END
$$$$

 Created by Python create_sdf_string function

 28 30  0  0  0  0  0  0  0  0999 V2000
   11.4592   11.2893   18.7941 C   0  0  0  0  0  0  0  0  0  0  0  0
    3.4202    7.9009   20.3866 C   0  0  0  0  0  0  0  0  0  0  0  0
   13.5280   10.3522   19.3586 C   0  0  0  0  0  0  0  0  0  0  0  0
    9.6923    5.6468   22.7891 C   0  0  0  0  0  0  0  0  0  0  0  0
   11.7756   10.2554   20.8841 N   0  0  0  0  0  0  0  0  0  0  0  0
    8.9876   11.9370   19.8757 O   0  0  0  0  0  0  0  0  0  0  0  0
    6.0167    8.4478   21.1089 C   0  0  0  0  0  0  0  0  0  0  0  0
   11.0002   10.8890   20.0262 C   0  0  0  0  0  0  0  0  0  0  0  0
    2.1721    7.7393   20.0315 O   0  0  0  0  0  0  0  0  0  0  0  0
    9.1107   10.3880   21.3769 N   0  0  0  0  0  0  0  0  0  0  0  0
    3.9102    9.2008   20.3124 C   0  0  0  0  0  0  0  0  0  0  0  0
   12.7292   10.9960   18.4597 C   0  0  0  0  0  0  0  0  0  0  0  0
    9.3798    6.6793   23.6625 C   0  0  0  0  0  0  0  0  0  0  0  0
   14.7425   10.0739   19.0802 O   0  0  0  0  0  0  0  0  0  0  0  0
    5.1894    9.4673   20.7118 C   0  0  0  0  0  0  0  0  0  0  0  0
    7.3773    8.8224   21.4870 C   0  0  0  0  0  0  0  0  0  0  0  0
    8.4391    6.6439   21.0235 C   0  0  0  0  0  0  0  0  0  0  0  0
    9.6494   11.1353   20.4167 C   0  0  0  0  0  0  0  0  0  0  0  0
    8.1431    7.6829   21.9046 C   0  0  0  0  0  0  0  0  0  0  0  0
    7.7796   10.1314   21.5115 N   0  0  0  0  0  0  0  0  0  0  0  0
    9.2768    5.6183   21.4437 C   0  0  0  0  0  0  0  0  0  0  0  0
    8.6315    7.7322   23.1768 C   0  0  0  0  0  0  0  0  0  0  0  0
   13.0537    9.9821   20.5781 C   0  0  0  0  0  0  0  0  0  0  0  0
   10.3850    4.6575   23.2386 O   0  0  0  0  0  0  0  0  0  0  0  0
    4.2069    6.8450   20.7994 C   0  0  0  0  0  0  0  0  0  0  0  0
    3.0726   10.1043   19.8522 O   0  0  0  0  0  0  0  0  0  0  0  0
    5.5057    7.1196   21.1155 C   0  0  0  0  0  0  0  0  0  0  0  0
    7.0367   11.0229   21.9948 O   0  0  0  0  0  0  0  0  0  0  0  0
  1  8  4  0
  1 12  4  0
  2  9  1  0
  2 11  4  0
  2 25  4  0
  3 12  4  0
  3 14  1  0
  3 23  4  0
  4 13  4  0
  4 21  4  0
  4 24  1  0
  5  8  4  0
  5 23  4  0
  6 18  2  0
  7 15  4  0
  7 16  1  0
  7 27  4  0
  8 18  1  0
 10 18  1  0
 10 20  1  0
 11 15  4  0
 11 26  1  0
 13 22  4  0
 16 19  1  0
 16 20  2  0
 17 19  4  0
 17 21  4  0
 19 22  4  0
 20 28  1  0
 25 27  4  0
M  END
$$$$

 Created by Python create_sdf_string function

 28 30  0  0  0  0  0  0  0  0999 V2000
   11.4592   11.2893   18.7941 C   0  0  0  0  0  0  0  0  0  0  0  0
    3.4202    7.9009   20.3866 C   0  0  0  0  0  0  0  0  0  0  0  0
   13.5280   10.3522   19.3586 C   0  0  0  0  0  0  0  0  0  0  0  0
    9.6923    5.6468   22.7891 C   0  0  0  0  0  0  0  0  0  0  0  0
   11.7756   10.2554   20.8841 N   0  0  0  0  0  0  0  0  0  0  0  0
    8.9876   11.9370   19.8757 O   0  0  0  0  0  0  0  0  0  0  0  0
    6.0167    8.4478   21.1089 C   0  0  0  0  0  0  0  0  0  0  0  0
   11.0002   10.8890   20.0262 C   0  0  0  0  0  0  0  0  0  0  0  0
    2.1721    7.7393   20.0315 O   0  0  0  0  0  0  0  0  0  0  0  0
    9.1107   10.3880   21.3769 N   0  0  0  0  0  0  0  0  0  0  0  0
    3.9102    9.2008   20.3124 C   0  0  0  0  0  0  0  0  0  0  0  0
   12.7292   10.9960   18.4597 C   0  0  0  0  0  0  0  0  0  0  0  0
    9.3798    6.6793   23.6625 C   0  0  0  0  0  0  0  0  0  0  0  0
   14.7425   10.0739   19.0802 O   0  0  0  0  0  0  0  0  0  0  0  0
    5.1894    9.4673   20.7118 C   0  0  0  0  0  0  0  0  0  0  0  0
    7.3773    8.8224   21.4870 C   0  0  0  0  0  0  0  0  0  0  0  0
    8.4391    6.6439   21.0235 C   0  0  0  0  0  0  0  0  0  0  0  0
    9.6494   11.1353   20.4167 C   0  0  0  0  0  0  0  0  0  0  0  0
    8.1431    7.6829   21.9046 C   0  0  0  0  0  0  0  0  0  0  0  0
    7.7796   10.1314   21.5115 N   0  0  0  0  0  0  0  0  0  0  0  0
    9.2768    5.6183   21.4437 C   0  0  0  0  0  0  0  0  0  0  0  0
    8.6315    7.7322   23.1768 C   0  0  0  0  0  0  0  0  0  0  0  0
   13.0537    9.9821   20.5781 C   0  0  0  0  0  0  0  0  0  0  0  0
   10.3850    4.6575   23.2386 O   0  0  0  0  0  0  0  0  0  0  0  0
    4.2069    6.8450   20.7994 C   0  0  0  0  0  0  0  0  0  0  0  0
    3.0726   10.1043   19.8522 O   0  0  0  0  0  0  0  0  0  0  0  0
    5.5057    7.1196   21.1155 C   0  0  0  0  0  0  0  0  0  0  0  0
    7.0367   11.0229   21.9948 O   0  0  0  0  0  0  0  0  0  0  0  0
  1  8  4  0
  1 12  4  0
  2  9  1  0
  2 11  4  0
  2 25  4  0
  3 12  4  0
  3 14  1  0
  3 23  4  0
  4 13  4  0
  4 21  4  0
  4 24  1  0
  5  8  4  0
  5 23  4  0
  6 18  2  0
  7 15  4  0
  7 16  1  0
  7 27  4  0
  8 18  1  0
 10 18  1  0
 10 20  1  0
 11 15  4  0
 11 26  1  0
 13 22  4  0
 16 19  1  0
 16 20  2  0
 17 19  4  0
 17 21  4  0
 19 22  4  0
 20 28  1  0
 25 27  4  0
M  END
$$$$

 Created by Python create_sdf_string function

 28 30  0  0  0  0  0  0  0  0999 V2000
   11.4592   11.2893   18.7941 C   0  0  0  0  0  0  0  0  0  0  0  0
    3.4202    7.9009   20.3866 C   0  0  0  0  0  0  0  0  0  0  0  0
   13.5280   10.3522   19.3586 C   0  0  0  0  0  0  0  0  0  0  0  0
    9.6923    5.6468   22.7891 C   0  0  0  0  0  0  0  0  0  0  0  0
   11.7756   10.2554   20.8841 N   0  0  0  0  0  0  0  0  0  0  0  0
    8.9876   11.9370   19.8757 O   0  0  0  0  0  0  0  0  0  0  0  0
    6.0167    8.4478   21.1089 C   0  0  0  0  0  0  0  0  0  0  0  0
   11.0002   10.8890   20.0262 C   0  0  0  0  0  0  0  0  0  0  0  0
    2.1721    7.7393   20.0315 O   0  0  0  0  0  0  0  0  0  0  0  0
    9.1107   10.3880   21.3769 N   0  0  0  0  0  0  0  0  0  0  0  0
    3.9102    9.2008   20.3124 C   0  0  0  0  0  0  0  0  0  0  0  0
   12.7292   10.9960   18.4597 C   0  0  0  0  0  0  0  0  0  0  0  0
    9.3798    6.6793   23.6625 C   0  0  0  0  0  0  0  0  0  0  0  0
   14.7425   10.0739   19.0802 O   0  0  0  0  0  0  0  0  0  0  0  0
    5.1894    9.4673   20.7118 C   0  0  0  0  0  0  0  0  0  0  0  0
    7.3773    8.8224   21.4870 C   0  0  0  0  0  0  0  0  0  0  0  0
    8.4391    6.6439   21.0235 C   0  0  0  0  0  0  0  0  0  0  0  0
    9.6494   11.1353   20.4167 C   0  0  0  0  0  0  0  0  0  0  0  0
    8.1431    7.6829   21.9046 C   0  0  0  0  0  0  0  0  0  0  0  0
    7.7796   10.1314   21.5115 N   0  0  0  0  0  0  0  0  0  0  0  0
    9.2768    5.6183   21.4437 C   0  0  0  0  0  0  0  0  0  0  0  0
    8.6315    7.7322   23.1768 C   0  0  0  0  0  0  0  0  0  0  0  0
   13.0537    9.9821   20.5781 C   0  0  0  0  0  0  0  0  0  0  0  0
   10.3850    4.6575   23.2386 O   0  0  0  0  0  0  0  0  0  0  0  0
    4.2069    6.8450   20.7994 C   0  0  0  0  0  0  0  0  0  0  0  0
    3.0726   10.1043   19.8522 O   0  0  0  0  0  0  0  0  0  0  0  0
    5.5057    7.1196   21.1155 C   0  0  0  0  0  0  0  0  0  0  0  0
    7.0367   11.0229   21.9948 O   0  0  0  0  0  0  0  0  0  0  0  0
  1  8  4  0
  1 12  4  0
  2  9  1  0
  2 11  4  0
  2 25  4  0
  3 12  4  0
  3 14  1  0
  3 23  4  0
  4 13  4  0
  4 21  4  0
  4 24  1  0
  5  8  4  0
  5 23  4  0
  6 18  2  0
  7 15  4  0
  7 16  1  0
  7 27  4  0
  8 18  1  0
 10 18  1  0
 10 20  1  0
 11 15  4  0
 11 26  1  0
 13 22  4  0
 16 19  1  0
 16 20  2  0
 17 19  4  0
 17 21  4  0
 19 22  4  0
 20 28  1  0
 25 27  4  0
M  END
$$$$

 Created by Python create_sdf_string function

 28 30  0  0  0  0  0  0  0  0999 V2000
   11.4592   11.2893   18.7941 C   0  0  0  0  0  0  0  0  0  0  0  0
    3.4202    7.9009   20.3866 C   0  0  0  0  0  0  0  0  0  0  0  0
   13.5280   10.3522   19.3586 C   0  0  0  0  0  0  0  0  0  0  0  0
    9.6923    5.6468   22.7891 C   0  0  0  0  0  0  0  0  0  0  0  0
   11.7756   10.2554   20.8841 N   0  0  0  0  0  0  0  0  0  0  0  0
    8.9876   11.9370   19.8757 O   0  0  0  0  0  0  0  0  0  0  0  0
    6.0167    8.4478   21.1089 C   0  0  0  0  0  0  0  0  0  0  0  0
   11.0002   10.8890   20.0262 C   0  0  0  0  0  0  0  0  0  0  0  0
    2.1721    7.7393   20.0315 O   0  0  0  0  0  0  0  0  0  0  0  0
    9.1107   10.3880   21.3769 N   0  0  0  0  0  0  0  0  0  0  0  0
    3.9102    9.2008   20.3124 C   0  0  0  0  0  0  0  0  0  0  0  0
   12.7292   10.9960   18.4597 C   0  0  0  0  0  0  0  0  0  0  0  0
    9.3798    6.6793   23.6625 C   0  0  0  0  0  0  0  0  0  0  0  0
   14.7425   10.0739   19.0802 O   0  0  0  0  0  0  0  0  0  0  0  0
    5.1894    9.4673   20.7118 C   0  0  0  0  0  0  0  0  0  0  0  0
    7.3773    8.8224   21.4870 C   0  0  0  0  0  0  0  0  0  0  0  0
    8.4391    6.6439   21.0235 C   0  0  0  0  0  0  0  0  0  0  0  0
    9.6494   11.1353   20.4167 C   0  0  0  0  0  0  0  0  0  0  0  0
    8.1431    7.6829   21.9046 C   0  0  0  0  0  0  0  0  0  0  0  0
    7.7796   10.1314   21.5115 N   0  0  0  0  0  0  0  0  0  0  0  0
    9.2768    5.6183   21.4437 C   0  0  0  0  0  0  0  0  0  0  0  0
    8.6315    7.7322   23.1768 C   0  0  0  0  0  0  0  0  0  0  0  0
   13.0537    9.9821   20.5781 C   0  0  0  0  0  0  0  0  0  0  0  0
   10.3850    4.6575   23.2386 O   0  0  0  0  0  0  0  0  0  0  0  0
    4.2069    6.8450   20.7994 C   0  0  0  0  0  0  0  0  0  0  0  0
    3.0726   10.1043   19.8522 O   0  0  0  0  0  0  0  0  0  0  0  0
    5.5057    7.1196   21.1155 C   0  0  0  0  0  0  0  0  0  0  0  0
    7.0367   11.0229   21.9948 O   0  0  0  0  0  0  0  0  0  0  0  0
  1  8  4  0
  1 12  4  0
  2  9  1  0
  2 11  4  0
  2 25  4  0
  3 12  4  0
  3 14  1  0
  3 23  4  0
  4 13  4  0
  4 21  4  0
  4 24  1  0
  5  8  4  0
  5 23  4  0
  6 18  2  0
  7 15  4  0
  7 16  1  0
  7 27  4  0
  8 18  1  0
 10 18  1  0
 10 20  1  0
 11 15  4  0
 11 26  1  0
 13 22  4  0
 16 19  1  0
 16 20  2  0
 17 19  4  0
 17 21  4  0
 19 22  4  0
 20 28  1  0
 25 27  4  0
M  END
$$$$

 Created by Python create_sdf_string function

 28 30  0  0  0  0  0  0  0  0999 V2000
   11.4592   11.2893   18.7941 C   0  0  0  0  0  0  0  0  0  0  0  0
    3.4202    7.9009   20.3866 C   0  0  0  0  0  0  0  0  0  0  0  0
   13.5280   10.3522   19.3586 C   0  0  0  0  0  0  0  0  0  0  0  0
    9.6923    5.6468   22.7891 C   0  0  0  0  0  0  0  0  0  0  0  0
   11.7756   10.2554   20.8841 N   0  0  0  0  0  0  0  0  0  0  0  0
    8.9876   11.9370   19.8757 O   0  0  0  0  0  0  0  0  0  0  0  0
    6.0167    8.4478   21.1089 C   0  0  0  0  0  0  0  0  0  0  0  0
   11.0002   10.8890   20.0262 C   0  0  0  0  0  0  0  0  0  0  0  0
    2.1721    7.7393   20.0315 O   0  0  0  0  0  0  0  0  0  0  0  0
    9.1107   10.3880   21.3769 N   0  0  0  0  0  0  0  0  0  0  0  0
    3.9102    9.2008   20.3124 C   0  0  0  0  0  0  0  0  0  0  0  0
   12.7292   10.9960   18.4597 C   0  0  0  0  0  0  0  0  0  0  0  0
    9.3798    6.6793   23.6625 C   0  0  0  0  0  0  0  0  0  0  0  0
   14.7425   10.0739   19.0802 O   0  0  0  0  0  0  0  0  0  0  0  0
    5.1894    9.4673   20.7118 C   0  0  0  0  0  0  0  0  0  0  0  0
    7.3773    8.8224   21.4870 C   0  0  0  0  0  0  0  0  0  0  0  0
    8.4391    6.6439   21.0235 C   0  0  0  0  0  0  0  0  0  0  0  0
    9.6494   11.1353   20.4167 C   0  0  0  0  0  0  0  0  0  0  0  0
    8.1431    7.6829   21.9046 C   0  0  0  0  0  0  0  0  0  0  0  0
    7.7796   10.1314   21.5115 N   0  0  0  0  0  0  0  0  0  0  0  0
    9.2768    5.6183   21.4437 C   0  0  0  0  0  0  0  0  0  0  0  0
    8.6315    7.7322   23.1768 C   0  0  0  0  0  0  0  0  0  0  0  0
   13.0537    9.9821   20.5781 C   0  0  0  0  0  0  0  0  0  0  0  0
   10.3850    4.6575   23.2386 O   0  0  0  0  0  0  0  0  0  0  0  0
    4.2069    6.8450   20.7994 C   0  0  0  0  0  0  0  0  0  0  0  0
    3.0726   10.1043   19.8522 O   0  0  0  0  0  0  0  0  0  0  0  0
    5.5057    7.1196   21.1155 C   0  0  0  0  0  0  0  0  0  0  0  0
    7.0367   11.0229   21.9948 O   0  0  0  0  0  0  0  0  0  0  0  0
  1  8  4  0
  1 12  4  0
  2  9  1  0
  2 11  4  0
  2 25  4  0
  3 12  4  0
  3 14  1  0
  3 23  4  0
  4 13  4  0
  4 21  4  0
  4 24  1  0
  5  8  4  0
  5 23  4  0
  6 18  2  0
  7 15  4  0
  7 16  1  0
  7 27  4  0
  8 18  1  0
 10 18  1  0
 10 20  1  0
 11 15  4  0
 11 26  1  0
 13 22  4  0
 16 19  1  0
 16 20  2  0
 17 19  4  0
 17 21  4  0
 19 22  4  0
 20 28  1  0
 25 27  4  0
M  END
$$$$

 Created by Python create_sdf_string function

 28 30  0  0  0  0  0  0  0  0999 V2000
   11.4592   11.2893   18.7941 C   0  0  0  0  0  0  0  0  0  0  0  0
    3.4202    7.9009   20.3866 C   0  0  0  0  0  0  0  0  0  0  0  0
   13.5280   10.3522   19.3586 C   0  0  0  0  0  0  0  0  0  0  0  0
    9.6923    5.6468   22.7891 C   0  0  0  0  0  0  0  0  0  0  0  0
   11.7756   10.2554   20.8841 N   0  0  0  0  0  0  0  0  0  0  0  0
    8.9876   11.9370   19.8757 O   0  0  0  0  0  0  0  0  0  0  0  0
    6.0167    8.4478   21.1089 C   0  0  0  0  0  0  0  0  0  0  0  0
   11.0002   10.8890   20.0262 C   0  0  0  0  0  0  0  0  0  0  0  0
    2.1721    7.7393   20.0315 O   0  0  0  0  0  0  0  0  0  0  0  0
    9.1107   10.3880   21.3769 N   0  0  0  0  0  0  0  0  0  0  0  0
    3.9102    9.2008   20.3124 C   0  0  0  0  0  0  0  0  0  0  0  0
   12.7292   10.9960   18.4597 C   0  0  0  0  0  0  0  0  0  0  0  0
    9.3798    6.6793   23.6625 C   0  0  0  0  0  0  0  0  0  0  0  0
   14.7425   10.0739   19.0802 O   0  0  0  0  0  0  0  0  0  0  0  0
    5.1894    9.4673   20.7118 C   0  0  0  0  0  0  0  0  0  0  0  0
    7.3773    8.8224   21.4870 C   0  0  0  0  0  0  0  0  0  0  0  0
    8.4391    6.6439   21.0235 C   0  0  0  0  0  0  0  0  0  0  0  0
    9.6494   11.1353   20.4167 C   0  0  0  0  0  0  0  0  0  0  0  0
    8.1431    7.6829   21.9046 C   0  0  0  0  0  0  0  0  0  0  0  0
    7.7796   10.1314   21.5115 N   0  0  0  0  0  0  0  0  0  0  0  0
    9.2768    5.6183   21.4437 C   0  0  0  0  0  0  0  0  0  0  0  0
    8.6315    7.7322   23.1768 C   0  0  0  0  0  0  0  0  0  0  0  0
   13.0537    9.9821   20.5781 C   0  0  0  0  0  0  0  0  0  0  0  0
   10.3850    4.6575   23.2386 O   0  0  0  0  0  0  0  0  0  0  0  0
    4.2069    6.8450   20.7994 C   0  0  0  0  0  0  0  0  0  0  0  0
    3.0726   10.1043   19.8522 O   0  0  0  0  0  0  0  0  0  0  0  0
    5.5057    7.1196   21.1155 C   0  0  0  0  0  0  0  0  0  0  0  0
    7.0367   11.0229   21.9948 O   0  0  0  0  0  0  0  0  0  0  0  0
  1  8  4  0
  1 12  4  0
  2  9  1  0
  2 11  4  0
  2 25  4  0
  3 12  4  0
  3 14  1  0
  3 23  4  0
  4 13  4  0
  4 21  4  0
  4 24  1  0
  5  8  4  0
  5 23  4  0
  6 18  2  0
  7 15  4  0
  7 16  1  0
  7 27  4  0
  8 18  1  0
 10 18  1  0
 10 20  1  0
 11 15  4  0
 11 26  1  0
 13 22  4  0
 16 19  1  0
 16 20  2  0
 17 19  4  0
 17 21  4  0
 19 22  4  0
 20 28  1  0
 25 27  4  0
M  END
$$$$

 Created by Python create_sdf_string function

 28 30  0  0  0  0  0  0  0  0999 V2000
   11.4592   11.2893   18.7941 C   0  0  0  0  0  0  0  0  0  0  0  0
    3.4202    7.9009   20.3866 C   0  0  0  0  0  0  0  0  0  0  0  0
   13.5280   10.3522   19.3586 C   0  0  0  0  0  0  0  0  0  0  0  0
    9.6923    5.6468   22.7891 C   0  0  0  0  0  0  0  0  0  0  0  0
   11.7756   10.2554   20.8841 N   0  0  0  0  0  0  0  0  0  0  0  0
    8.9876   11.9370   19.8757 O   0  0  0  0  0  0  0  0  0  0  0  0
    6.0167    8.4478   21.1089 C   0  0  0  0  0  0  0  0  0  0  0  0
   11.0002   10.8890   20.0262 C   0  0  0  0  0  0  0  0  0  0  0  0
    2.1721    7.7393   20.0315 O   0  0  0  0  0  0  0  0  0  0  0  0
    9.1107   10.3880   21.3769 N   0  0  0  0  0  0  0  0  0  0  0  0
    3.9102    9.2008   20.3124 C   0  0  0  0  0  0  0  0  0  0  0  0
   12.7292   10.9960   18.4597 C   0  0  0  0  0  0  0  0  0  0  0  0
    9.3798    6.6793   23.6625 C   0  0  0  0  0  0  0  0  0  0  0  0
   14.7425   10.0739   19.0802 O   0  0  0  0  0  0  0  0  0  0  0  0
    5.1894    9.4673   20.7118 C   0  0  0  0  0  0  0  0  0  0  0  0
    7.3773    8.8224   21.4870 C   0  0  0  0  0  0  0  0  0  0  0  0
    8.4391    6.6439   21.0235 C   0  0  0  0  0  0  0  0  0  0  0  0
    9.6494   11.1353   20.4167 C   0  0  0  0  0  0  0  0  0  0  0  0
    8.1431    7.6829   21.9046 C   0  0  0  0  0  0  0  0  0  0  0  0
    7.7796   10.1314   21.5115 N   0  0  0  0  0  0  0  0  0  0  0  0
    9.2768    5.6183   21.4437 C   0  0  0  0  0  0  0  0  0  0  0  0
    8.6315    7.7322   23.1768 C   0  0  0  0  0  0  0  0  0  0  0  0
   13.0537    9.9821   20.5781 C   0  0  0  0  0  0  0  0  0  0  0  0
   10.3850    4.6575   23.2386 O   0  0  0  0  0  0  0  0  0  0  0  0
    4.2069    6.8450   20.7994 C   0  0  0  0  0  0  0  0  0  0  0  0
    3.0726   10.1043   19.8522 O   0  0  0  0  0  0  0  0  0  0  0  0
    5.5057    7.1196   21.1155 C   0  0  0  0  0  0  0  0  0  0  0  0
    7.0367   11.0229   21.9948 O   0  0  0  0  0  0  0  0  0  0  0  0
  1  8  4  0
  1 12  4  0
  2  9  1  0
  2 11  4  0
  2 25  4  0
  3 12  4  0
  3 14  1  0
  3 23  4  0
  4 13  4  0
  4 21  4  0
  4 24  1  0
  5  8  4  0
  5 23  4  0
  6 18  2  0
  7 15  4  0
  7 16  1  0
  7 27  4  0
  8 18  1  0
 10 18  1  0
 10 20  1  0
 11 15  4  0
 11 26  1  0
 13 22  4  0
 16 19  1  0
 16 20  2  0
 17 19  4  0
 17 21  4  0
 19 22  4  0
 20 28  1  0
 25 27  4  0
M  END
$$$$

 Created by Python create_sdf_string function

 28 30  0  0  0  0  0  0  0  0999 V2000
   11.4592   11.2893   18.7941 C   0  0  0  0  0  0  0  0  0  0  0  0
    3.4202    7.9009   20.3866 C   0  0  0  0  0  0  0  0  0  0  0  0
   13.5280   10.3522   19.3586 C   0  0  0  0  0  0  0  0  0  0  0  0
    9.6923    5.6468   22.7891 C   0  0  0  0  0  0  0  0  0  0  0  0
   11.7756   10.2554   20.8841 N   0  0  0  0  0  0  0  0  0  0  0  0
    8.9876   11.9370   19.8757 O   0  0  0  0  0  0  0  0  0  0  0  0
    6.0167    8.4478   21.1089 C   0  0  0  0  0  0  0  0  0  0  0  0
   11.0002   10.8890   20.0262 C   0  0  0  0  0  0  0  0  0  0  0  0
    2.1721    7.7393   20.0315 O   0  0  0  0  0  0  0  0  0  0  0  0
    9.1107   10.3880   21.3769 N   0  0  0  0  0  0  0  0  0  0  0  0
    3.9102    9.2008   20.3124 C   0  0  0  0  0  0  0  0  0  0  0  0
   12.7292   10.9960   18.4597 C   0  0  0  0  0  0  0  0  0  0  0  0
    9.3798    6.6793   23.6625 C   0  0  0  0  0  0  0  0  0  0  0  0
   14.7425   10.0739   19.0802 O   0  0  0  0  0  0  0  0  0  0  0  0
    5.1894    9.4673   20.7118 C   0  0  0  0  0  0  0  0  0  0  0  0
    7.3773    8.8224   21.4870 C   0  0  0  0  0  0  0  0  0  0  0  0
    8.4391    6.6439   21.0235 C   0  0  0  0  0  0  0  0  0  0  0  0
    9.6494   11.1353   20.4167 C   0  0  0  0  0  0  0  0  0  0  0  0
    8.1431    7.6829   21.9046 C   0  0  0  0  0  0  0  0  0  0  0  0
    7.7796   10.1314   21.5115 N   0  0  0  0  0  0  0  0  0  0  0  0
    9.2768    5.6183   21.4437 C   0  0  0  0  0  0  0  0  0  0  0  0
    8.6315    7.7322   23.1768 C   0  0  0  0  0  0  0  0  0  0  0  0
   13.0537    9.9821   20.5781 C   0  0  0  0  0  0  0  0  0  0  0  0
   10.3850    4.6575   23.2386 O   0  0  0  0  0  0  0  0  0  0  0  0
    4.2069    6.8450   20.7994 C   0  0  0  0  0  0  0  0  0  0  0  0
    3.0726   10.1043   19.8522 O   0  0  0  0  0  0  0  0  0  0  0  0
    5.5057    7.1196   21.1155 C   0  0  0  0  0  0  0  0  0  0  0  0
    7.0367   11.0229   21.9948 O   0  0  0  0  0  0  0  0  0  0  0  0
  1  8  4  0
  1 12  4  0
  2  9  1  0
  2 11  4  0
  2 25  4  0
  3 12  4  0
  3 14  1  0
  3 23  4  0
  4 13  4  0
  4 21  4  0
  4 24  1  0
  5  8  4  0
  5 23  4  0
  6 18  2  0
  7 15  4  0
  7 16  1  0
  7 27  4  0
  8 18  1  0
 10 18  1  0
 10 20  1  0
 11 15  4  0
 11 26  1  0
 13 22  4  0
 16 19  1  0
 16 20  2  0
 17 19  4  0
 17 21  4  0
 19 22  4  0
 20 28  1  0
 25 27  4  0
M  END
$$$$

 Created by Python create_sdf_string function

 28 30  0  0  0  0  0  0  0  0999 V2000
   11.4592   11.2893   18.7941 C   0  0  0  0  0  0  0  0  0  0  0  0
    3.4202    7.9009   20.3866 C   0  0  0  0  0  0  0  0  0  0  0  0
   13.5280   10.3522   19.3586 C   0  0  0  0  0  0  0  0  0  0  0  0
    9.6923    5.6468   22.7891 C   0  0  0  0  0  0  0  0  0  0  0  0
   11.7756   10.2554   20.8841 N   0  0  0  0  0  0  0  0  0  0  0  0
    8.9876   11.9370   19.8757 O   0  0  0  0  0  0  0  0  0  0  0  0
    6.0167    8.4478   21.1089 C   0  0  0  0  0  0  0  0  0  0  0  0
   11.0002   10.8890   20.0262 C   0  0  0  0  0  0  0  0  0  0  0  0
    2.1721    7.7393   20.0315 O   0  0  0  0  0  0  0  0  0  0  0  0
    9.1107   10.3880   21.3769 N   0  0  0  0  0  0  0  0  0  0  0  0
    3.9102    9.2008   20.3124 C   0  0  0  0  0  0  0  0  0  0  0  0
   12.7292   10.9960   18.4597 C   0  0  0  0  0  0  0  0  0  0  0  0
    9.3798    6.6793   23.6625 C   0  0  0  0  0  0  0  0  0  0  0  0
   14.7425   10.0739   19.0802 O   0  0  0  0  0  0  0  0  0  0  0  0
    5.1894    9.4673   20.7118 C   0  0  0  0  0  0  0  0  0  0  0  0
    7.3773    8.8224   21.4870 C   0  0  0  0  0  0  0  0  0  0  0  0
    8.4391    6.6439   21.0235 C   0  0  0  0  0  0  0  0  0  0  0  0
    9.6494   11.1353   20.4167 C   0  0  0  0  0  0  0  0  0  0  0  0
    8.1431    7.6829   21.9046 C   0  0  0  0  0  0  0  0  0  0  0  0
    7.7796   10.1314   21.5115 N   0  0  0  0  0  0  0  0  0  0  0  0
    9.2768    5.6183   21.4437 C   0  0  0  0  0  0  0  0  0  0  0  0
    8.6315    7.7322   23.1768 C   0  0  0  0  0  0  0  0  0  0  0  0
   13.0537    9.9821   20.5781 C   0  0  0  0  0  0  0  0  0  0  0  0
   10.3850    4.6575   23.2386 O   0  0  0  0  0  0  0  0  0  0  0  0
    4.2069    6.8450   20.7994 C   0  0  0  0  0  0  0  0  0  0  0  0
    3.0726   10.1043   19.8522 O   0  0  0  0  0  0  0  0  0  0  0  0
    5.5057    7.1196   21.1155 C   0  0  0  0  0  0  0  0  0  0  0  0
    7.0367   11.0229   21.9948 O   0  0  0  0  0  0  0  0  0  0  0  0
  1  8  4  0
  1 12  4  0
  2  9  1  0
  2 11  4  0
  2 25  4  0
  3 12  4  0
  3 14  1  0
  3 23  4  0
  4 13  4  0
  4 21  4  0
  4 24  1  0
  5  8  4  0
  5 23  4  0
  6 18  2  0
  7 15  4  0
  7 16  1  0
  7 27  4  0
  8 18  1  0
 10 18  1  0
 10 20  1  0
 11 15  4  0
 11 26  1  0
 13 22  4  0
 16 19  1  0
 16 20  2  0
 17 19  4  0
 17 21  4  0
 19 22  4  0
 20 28  1  0
 25 27  4  0
M  END
$$$$

 Created by Python create_sdf_string function

 28 30  0  0  0  0  0  0  0  0999 V2000
   11.4592   11.2893   18.7941 C   0  0  0  0  0  0  0  0  0  0  0  0
    3.4202    7.9009   20.3866 C   0  0  0  0  0  0  0  0  0  0  0  0
   13.5280   10.3522   19.3586 C   0  0  0  0  0  0  0  0  0  0  0  0
    9.6923    5.6468   22.7891 C   0  0  0  0  0  0  0  0  0  0  0  0
   11.7756   10.2554   20.8841 N   0  0  0  0  0  0  0  0  0  0  0  0
    8.9876   11.9370   19.8757 O   0  0  0  0  0  0  0  0  0  0  0  0
    6.0167    8.4478   21.1089 C   0  0  0  0  0  0  0  0  0  0  0  0
   11.0002   10.8890   20.0262 C   0  0  0  0  0  0  0  0  0  0  0  0
    2.1721    7.7393   20.0315 O   0  0  0  0  0  0  0  0  0  0  0  0
    9.1107   10.3880   21.3769 N   0  0  0  0  0  0  0  0  0  0  0  0
    3.9102    9.2008   20.3124 C   0  0  0  0  0  0  0  0  0  0  0  0
   12.7292   10.9960   18.4597 C   0  0  0  0  0  0  0  0  0  0  0  0
    9.3798    6.6793   23.6625 C   0  0  0  0  0  0  0  0  0  0  0  0
   14.7425   10.0739   19.0802 O   0  0  0  0  0  0  0  0  0  0  0  0
    5.1894    9.4673   20.7118 C   0  0  0  0  0  0  0  0  0  0  0  0
    7.3773    8.8224   21.4870 C   0  0  0  0  0  0  0  0  0  0  0  0
    8.4391    6.6439   21.0235 C   0  0  0  0  0  0  0  0  0  0  0  0
    9.6494   11.1353   20.4167 C   0  0  0  0  0  0  0  0  0  0  0  0
    8.1431    7.6829   21.9046 C   0  0  0  0  0  0  0  0  0  0  0  0
    7.7796   10.1314   21.5115 N   0  0  0  0  0  0  0  0  0  0  0  0
    9.2768    5.6183   21.4437 C   0  0  0  0  0  0  0  0  0  0  0  0
    8.6315    7.7322   23.1768 C   0  0  0  0  0  0  0  0  0  0  0  0
   13.0537    9.9821   20.5781 C   0  0  0  0  0  0  0  0  0  0  0  0
   10.3850    4.6575   23.2386 O   0  0  0  0  0  0  0  0  0  0  0  0
    4.2069    6.8450   20.7994 C   0  0  0  0  0  0  0  0  0  0  0  0
    3.0726   10.1043   19.8522 O   0  0  0  0  0  0  0  0  0  0  0  0
    5.5057    7.1196   21.1155 C   0  0  0  0  0  0  0  0  0  0  0  0
    7.0367   11.0229   21.9948 O   0  0  0  0  0  0  0  0  0  0  0  0
  1  8  4  0
  1 12  4  0
  2  9  1  0
  2 11  4  0
  2 25  4  0
  3 12  4  0
  3 14  1  0
  3 23  4  0
  4 13  4  0
  4 21  4  0
  4 24  1  0
  5  8  4  0
  5 23  4  0
  6 18  2  0
  7 15  4  0
  7 16  1  0
  7 27  4  0
  8 18  1  0
 10 18  1  0
 10 20  1  0
 11 15  4  0
 11 26  1  0
 13 22  4  0
 16 19  1  0
 16 20  2  0
 17 19  4  0
 17 21  4  0
 19 22  4  0
 20 28  1  0
 25 27  4  0
M  END
$$$$

 Created by Python create_sdf_string function

 28 30  0  0  0  0  0  0  0  0999 V2000
   11.4592   11.2893   18.7941 C   0  0  0  0  0  0  0  0  0  0  0  0
    3.4202    7.9009   20.3866 C   0  0  0  0  0  0  0  0  0  0  0  0
   13.5280   10.3522   19.3586 C   0  0  0  0  0  0  0  0  0  0  0  0
    9.6923    5.6468   22.7891 C   0  0  0  0  0  0  0  0  0  0  0  0
   11.7756   10.2554   20.8841 N   0  0  0  0  0  0  0  0  0  0  0  0
    8.9876   11.9370   19.8757 O   0  0  0  0  0  0  0  0  0  0  0  0
    6.0167    8.4478   21.1089 C   0  0  0  0  0  0  0  0  0  0  0  0
   11.0002   10.8890   20.0262 C   0  0  0  0  0  0  0  0  0  0  0  0
    2.1721    7.7393   20.0315 O   0  0  0  0  0  0  0  0  0  0  0  0
    9.1107   10.3880   21.3769 N   0  0  0  0  0  0  0  0  0  0  0  0
    3.9102    9.2008   20.3124 C   0  0  0  0  0  0  0  0  0  0  0  0
   12.7292   10.9960   18.4597 C   0  0  0  0  0  0  0  0  0  0  0  0
    9.3798    6.6793   23.6625 C   0  0  0  0  0  0  0  0  0  0  0  0
   14.7425   10.0739   19.0802 O   0  0  0  0  0  0  0  0  0  0  0  0
    5.1894    9.4673   20.7118 C   0  0  0  0  0  0  0  0  0  0  0  0
    7.3773    8.8224   21.4870 C   0  0  0  0  0  0  0  0  0  0  0  0
    8.4391    6.6439   21.0235 C   0  0  0  0  0  0  0  0  0  0  0  0
    9.6494   11.1353   20.4167 C   0  0  0  0  0  0  0  0  0  0  0  0
    8.1431    7.6829   21.9046 C   0  0  0  0  0  0  0  0  0  0  0  0
    7.7796   10.1314   21.5115 N   0  0  0  0  0  0  0  0  0  0  0  0
    9.2768    5.6183   21.4437 C   0  0  0  0  0  0  0  0  0  0  0  0
    8.6315    7.7322   23.1768 C   0  0  0  0  0  0  0  0  0  0  0  0
   13.0537    9.9821   20.5781 C   0  0  0  0  0  0  0  0  0  0  0  0
   10.3850    4.6575   23.2386 O   0  0  0  0  0  0  0  0  0  0  0  0
    4.2069    6.8450   20.7994 C   0  0  0  0  0  0  0  0  0  0  0  0
    3.0726   10.1043   19.8522 O   0  0  0  0  0  0  0  0  0  0  0  0
    5.5057    7.1196   21.1155 C   0  0  0  0  0  0  0  0  0  0  0  0
    7.0367   11.0229   21.9948 O   0  0  0  0  0  0  0  0  0  0  0  0
  1  8  4  0
  1 12  4  0
  2  9  1  0
  2 11  4  0
  2 25  4  0
  3 12  4  0
  3 14  1  0
  3 23  4  0
  4 13  4  0
  4 21  4  0
  4 24  1  0
  5  8  4  0
  5 23  4  0
  6 18  2  0
  7 15  4  0
  7 16  1  0
  7 27  4  0
  8 18  1  0
 10 18  1  0
 10 20  1  0
 11 15  4  0
 11 26  1  0
 13 22  4  0
 16 19  1  0
 16 20  2  0
 17 19  4  0
 17 21  4  0
 19 22  4  0
 20 28  1  0
 25 27  4  0
M  END
$$$$

 Created by Python create_sdf_string function

 28 30  0  0  0  0  0  0  0  0999 V2000
   11.4592   11.2893   18.7941 C   0  0  0  0  0  0  0  0  0  0  0  0
    3.4202    7.9009   20.3866 C   0  0  0  0  0  0  0  0  0  0  0  0
   13.5280   10.3522   19.3586 C   0  0  0  0  0  0  0  0  0  0  0  0
    9.6923    5.6468   22.7891 C   0  0  0  0  0  0  0  0  0  0  0  0
   11.7756   10.2554   20.8841 N   0  0  0  0  0  0  0  0  0  0  0  0
    8.9876   11.9370   19.8757 O   0  0  0  0  0  0  0  0  0  0  0  0
    6.0167    8.4478   21.1089 C   0  0  0  0  0  0  0  0  0  0  0  0
   11.0002   10.8890   20.0262 C   0  0  0  0  0  0  0  0  0  0  0  0
    2.1721    7.7393   20.0315 O   0  0  0  0  0  0  0  0  0  0  0  0
    9.1107   10.3880   21.3769 N   0  0  0  0  0  0  0  0  0  0  0  0
    3.9102    9.2008   20.3124 C   0  0  0  0  0  0  0  0  0  0  0  0
   12.7292   10.9960   18.4597 C   0  0  0  0  0  0  0  0  0  0  0  0
    9.3798    6.6793   23.6625 C   0  0  0  0  0  0  0  0  0  0  0  0
   14.7425   10.0739   19.0802 O   0  0  0  0  0  0  0  0  0  0  0  0
    5.1894    9.4673   20.7118 C   0  0  0  0  0  0  0  0  0  0  0  0
    7.3773    8.8224   21.4870 C   0  0  0  0  0  0  0  0  0  0  0  0
    8.4391    6.6439   21.0235 C   0  0  0  0  0  0  0  0  0  0  0  0
    9.6494   11.1353   20.4167 C   0  0  0  0  0  0  0  0  0  0  0  0
    8.1431    7.6829   21.9046 C   0  0  0  0  0  0  0  0  0  0  0  0
    7.7796   10.1314   21.5115 N   0  0  0  0  0  0  0  0  0  0  0  0
    9.2768    5.6183   21.4437 C   0  0  0  0  0  0  0  0  0  0  0  0
    8.6315    7.7322   23.1768 C   0  0  0  0  0  0  0  0  0  0  0  0
   13.0537    9.9821   20.5781 C   0  0  0  0  0  0  0  0  0  0  0  0
   10.3850    4.6575   23.2386 O   0  0  0  0  0  0  0  0  0  0  0  0
    4.2069    6.8450   20.7994 C   0  0  0  0  0  0  0  0  0  0  0  0
    3.0726   10.1043   19.8522 O   0  0  0  0  0  0  0  0  0  0  0  0
    5.5057    7.1196   21.1155 C   0  0  0  0  0  0  0  0  0  0  0  0
    7.0367   11.0229   21.9948 O   0  0  0  0  0  0  0  0  0  0  0  0
  1  8  4  0
  1 12  4  0
  2  9  1  0
  2 11  4  0
  2 25  4  0
  3 12  4  0
  3 14  1  0
  3 23  4  0
  4 13  4  0
  4 21  4  0
  4 24  1  0
  5  8  4  0
  5 23  4  0
  6 18  2  0
  7 15  4  0
  7 16  1  0
  7 27  4  0
  8 18  1  0
 10 18  1  0
 10 20  1  0
 11 15  4  0
 11 26  1  0
 13 22  4  0
 16 19  1  0
 16 20  2  0
 17 19  4  0
 17 21  4  0
 19 22  4  0
 20 28  1  0
 25 27  4  0
M  END
$$$$

 Created by Python create_sdf_string function

 28 30  0  0  0  0  0  0  0  0999 V2000
   11.4592   11.2893   18.7941 C   0  0  0  0  0  0  0  0  0  0  0  0
    3.4202    7.9009   20.3866 C   0  0  0  0  0  0  0  0  0  0  0  0
   13.5280   10.3522   19.3586 C   0  0  0  0  0  0  0  0  0  0  0  0
    9.6923    5.6468   22.7891 C   0  0  0  0  0  0  0  0  0  0  0  0
   11.7756   10.2554   20.8841 N   0  0  0  0  0  0  0  0  0  0  0  0
    8.9876   11.9370   19.8757 O   0  0  0  0  0  0  0  0  0  0  0  0
    6.0167    8.4478   21.1089 C   0  0  0  0  0  0  0  0  0  0  0  0
   11.0002   10.8890   20.0262 C   0  0  0  0  0  0  0  0  0  0  0  0
    2.1721    7.7393   20.0315 O   0  0  0  0  0  0  0  0  0  0  0  0
    9.1107   10.3880   21.3769 N   0  0  0  0  0  0  0  0  0  0  0  0
    3.9102    9.2008   20.3124 C   0  0  0  0  0  0  0  0  0  0  0  0
   12.7292   10.9960   18.4597 C   0  0  0  0  0  0  0  0  0  0  0  0
    9.3798    6.6793   23.6625 C   0  0  0  0  0  0  0  0  0  0  0  0
   14.7425   10.0739   19.0802 O   0  0  0  0  0  0  0  0  0  0  0  0
    5.1894    9.4673   20.7118 C   0  0  0  0  0  0  0  0  0  0  0  0
    7.3773    8.8224   21.4870 C   0  0  0  0  0  0  0  0  0  0  0  0
    8.4391    6.6439   21.0235 C   0  0  0  0  0  0  0  0  0  0  0  0
    9.6494   11.1353   20.4167 C   0  0  0  0  0  0  0  0  0  0  0  0
    8.1431    7.6829   21.9046 C   0  0  0  0  0  0  0  0  0  0  0  0
    7.7796   10.1314   21.5115 N   0  0  0  0  0  0  0  0  0  0  0  0
    9.2768    5.6183   21.4437 C   0  0  0  0  0  0  0  0  0  0  0  0
    8.6315    7.7322   23.1768 C   0  0  0  0  0  0  0  0  0  0  0  0
   13.0537    9.9821   20.5781 C   0  0  0  0  0  0  0  0  0  0  0  0
   10.3850    4.6575   23.2386 O   0  0  0  0  0  0  0  0  0  0  0  0
    4.2069    6.8450   20.7994 C   0  0  0  0  0  0  0  0  0  0  0  0
    3.0726   10.1043   19.8522 O   0  0  0  0  0  0  0  0  0  0  0  0
    5.5057    7.1196   21.1155 C   0  0  0  0  0  0  0  0  0  0  0  0
    7.0367   11.0229   21.9948 O   0  0  0  0  0  0  0  0  0  0  0  0
  1  8  4  0
  1 12  4  0
  2  9  1  0
  2 11  4  0
  2 25  4  0
  3 12  4  0
  3 14  1  0
  3 23  4  0
  4 13  4  0
  4 21  4  0
  4 24  1  0
  5  8  4  0
  5 23  4  0
  6 18  2  0
  7 15  4  0
  7 16  1  0
  7 27  4  0
  8 18  1  0
 10 18  1  0
 10 20  1  0
 11 15  4  0
 11 26  1  0
 13 22  4  0
 16 19  1  0
 16 20  2  0
 17 19  4  0
 17 21  4  0
 19 22  4  0
 20 28  1  0
 25 27  4  0
M  END
$$$$

 Created by Python create_sdf_string function

 28 30  0  0  0  0  0  0  0  0999 V2000
   11.4592   11.2893   18.7941 C   0  0  0  0  0  0  0  0  0  0  0  0
    3.4202    7.9009   20.3866 C   0  0  0  0  0  0  0  0  0  0  0  0
   13.5280   10.3522   19.3586 C   0  0  0  0  0  0  0  0  0  0  0  0
    9.6923    5.6468   22.7891 C   0  0  0  0  0  0  0  0  0  0  0  0
   11.7756   10.2554   20.8841 N   0  0  0  0  0  0  0  0  0  0  0  0
    8.9876   11.9370   19.8757 O   0  0  0  0  0  0  0  0  0  0  0  0
    6.0167    8.4478   21.1089 C   0  0  0  0  0  0  0  0  0  0  0  0
   11.0002   10.8890   20.0262 C   0  0  0  0  0  0  0  0  0  0  0  0
    2.1721    7.7393   20.0315 O   0  0  0  0  0  0  0  0  0  0  0  0
    9.1107   10.3880   21.3769 N   0  0  0  0  0  0  0  0  0  0  0  0
    3.9102    9.2008   20.3124 C   0  0  0  0  0  0  0  0  0  0  0  0
   12.7292   10.9960   18.4597 C   0  0  0  0  0  0  0  0  0  0  0  0
    9.3798    6.6793   23.6625 C   0  0  0  0  0  0  0  0  0  0  0  0
   14.7425   10.0739   19.0802 O   0  0  0  0  0  0  0  0  0  0  0  0
    5.1894    9.4673   20.7118 C   0  0  0  0  0  0  0  0  0  0  0  0
    7.3773    8.8224   21.4870 C   0  0  0  0  0  0  0  0  0  0  0  0
    8.4391    6.6439   21.0235 C   0  0  0  0  0  0  0  0  0  0  0  0
    9.6494   11.1353   20.4167 C   0  0  0  0  0  0  0  0  0  0  0  0
    8.1431    7.6829   21.9046 C   0  0  0  0  0  0  0  0  0  0  0  0
    7.7796   10.1314   21.5115 N   0  0  0  0  0  0  0  0  0  0  0  0
    9.2768    5.6183   21.4437 C   0  0  0  0  0  0  0  0  0  0  0  0
    8.6315    7.7322   23.1768 C   0  0  0  0  0  0  0  0  0  0  0  0
   13.0537    9.9821   20.5781 C   0  0  0  0  0  0  0  0  0  0  0  0
   10.3850    4.6575   23.2386 O   0  0  0  0  0  0  0  0  0  0  0  0
    4.2069    6.8450   20.7994 C   0  0  0  0  0  0  0  0  0  0  0  0
    3.0726   10.1043   19.8522 O   0  0  0  0  0  0  0  0  0  0  0  0
    5.5057    7.1196   21.1155 C   0  0  0  0  0  0  0  0  0  0  0  0
    7.0367   11.0229   21.9948 O   0  0  0  0  0  0  0  0  0  0  0  0
  1  8  4  0
  1 12  4  0
  2  9  1  0
  2 11  4  0
  2 25  4  0
  3 12  4  0
  3 14  1  0
  3 23  4  0
  4 13  4  0
  4 21  4  0
  4 24  1  0
  5  8  4  0
  5 23  4  0
  6 18  2  0
  7 15  4  0
  7 16  1  0
  7 27  4  0
  8 18  1  0
 10 18  1  0
 10 20  1  0
 11 15  4  0
 11 26  1  0
 13 22  4  0
 16 19  1  0
 16 20  2  0
 17 19  4  0
 17 21  4  0
 19 22  4  0
 20 28  1  0
 25 27  4  0
M  END
$$$$

 Created by Python create_sdf_string function

 28 30  0  0  0  0  0  0  0  0999 V2000
   11.4592   11.2893   18.7941 C   0  0  0  0  0  0  0  0  0  0  0  0
    3.4202    7.9009   20.3866 C   0  0  0  0  0  0  0  0  0  0  0  0
   13.5280   10.3522   19.3586 C   0  0  0  0  0  0  0  0  0  0  0  0
    9.6923    5.6468   22.7891 C   0  0  0  0  0  0  0  0  0  0  0  0
   11.7756   10.2554   20.8841 N   0  0  0  0  0  0  0  0  0  0  0  0
    8.9876   11.9370   19.8757 O   0  0  0  0  0  0  0  0  0  0  0  0
    6.0167    8.4478   21.1089 C   0  0  0  0  0  0  0  0  0  0  0  0
   11.0002   10.8890   20.0262 C   0  0  0  0  0  0  0  0  0  0  0  0
    2.1721    7.7393   20.0315 O   0  0  0  0  0  0  0  0  0  0  0  0
    9.1107   10.3880   21.3769 N   0  0  0  0  0  0  0  0  0  0  0  0
    3.9102    9.2008   20.3124 C   0  0  0  0  0  0  0  0  0  0  0  0
   12.7292   10.9960   18.4597 C   0  0  0  0  0  0  0  0  0  0  0  0
    9.3798    6.6793   23.6625 C   0  0  0  0  0  0  0  0  0  0  0  0
   14.7425   10.0739   19.0802 O   0  0  0  0  0  0  0  0  0  0  0  0
    5.1894    9.4673   20.7118 C   0  0  0  0  0  0  0  0  0  0  0  0
    7.3773    8.8224   21.4870 C   0  0  0  0  0  0  0  0  0  0  0  0
    8.4391    6.6439   21.0235 C   0  0  0  0  0  0  0  0  0  0  0  0
    9.6494   11.1353   20.4167 C   0  0  0  0  0  0  0  0  0  0  0  0
    8.1431    7.6829   21.9046 C   0  0  0  0  0  0  0  0  0  0  0  0
    7.7796   10.1314   21.5115 N   0  0  0  0  0  0  0  0  0  0  0  0
    9.2768    5.6183   21.4437 C   0  0  0  0  0  0  0  0  0  0  0  0
    8.6315    7.7322   23.1768 C   0  0  0  0  0  0  0  0  0  0  0  0
   13.0537    9.9821   20.5781 C   0  0  0  0  0  0  0  0  0  0  0  0
   10.3850    4.6575   23.2386 O   0  0  0  0  0  0  0  0  0  0  0  0
    4.2069    6.8450   20.7994 C   0  0  0  0  0  0  0  0  0  0  0  0
    3.0726   10.1043   19.8522 O   0  0  0  0  0  0  0  0  0  0  0  0
    5.5057    7.1196   21.1155 C   0  0  0  0  0  0  0  0  0  0  0  0
    7.0367   11.0229   21.9948 O   0  0  0  0  0  0  0  0  0  0  0  0
  1  8  4  0
  1 12  4  0
  2  9  1  0
  2 11  4  0
  2 25  4  0
  3 12  4  0
  3 14  1  0
  3 23  4  0
  4 13  4  0
  4 21  4  0
  4 24  1  0
  5  8  4  0
  5 23  4  0
  6 18  2  0
  7 15  4  0
  7 16  1  0
  7 27  4  0
  8 18  1  0
 10 18  1  0
 10 20  1  0
 11 15  4  0
 11 26  1  0
 13 22  4  0
 16 19  1  0
 16 20  2  0
 17 19  4  0
 17 21  4  0
 19 22  4  0
 20 28  1  0
 25 27  4  0
M  END
$$$$

 Created by Python create_sdf_string function

 28 30  0  0  0  0  0  0  0  0999 V2000
   11.4592   11.2893   18.7941 C   0  0  0  0  0  0  0  0  0  0  0  0
    3.4202    7.9009   20.3866 C   0  0  0  0  0  0  0  0  0  0  0  0
   13.5280   10.3522   19.3586 C   0  0  0  0  0  0  0  0  0  0  0  0
    9.6923    5.6468   22.7891 C   0  0  0  0  0  0  0  0  0  0  0  0
   11.7756   10.2554   20.8841 N   0  0  0  0  0  0  0  0  0  0  0  0
    8.9876   11.9370   19.8757 O   0  0  0  0  0  0  0  0  0  0  0  0
    6.0167    8.4478   21.1089 C   0  0  0  0  0  0  0  0  0  0  0  0
   11.0002   10.8890   20.0262 C   0  0  0  0  0  0  0  0  0  0  0  0
    2.1721    7.7393   20.0315 O   0  0  0  0  0  0  0  0  0  0  0  0
    9.1107   10.3880   21.3769 N   0  0  0  0  0  0  0  0  0  0  0  0
    3.9102    9.2008   20.3124 C   0  0  0  0  0  0  0  0  0  0  0  0
   12.7292   10.9960   18.4597 C   0  0  0  0  0  0  0  0  0  0  0  0
    9.3798    6.6793   23.6625 C   0  0  0  0  0  0  0  0  0  0  0  0
   14.7425   10.0739   19.0802 O   0  0  0  0  0  0  0  0  0  0  0  0
    5.1894    9.4673   20.7118 C   0  0  0  0  0  0  0  0  0  0  0  0
    7.3773    8.8224   21.4870 C   0  0  0  0  0  0  0  0  0  0  0  0
    8.4391    6.6439   21.0235 C   0  0  0  0  0  0  0  0  0  0  0  0
    9.6494   11.1353   20.4167 C   0  0  0  0  0  0  0  0  0  0  0  0
    8.1431    7.6829   21.9046 C   0  0  0  0  0  0  0  0  0  0  0  0
    7.7796   10.1314   21.5115 N   0  0  0  0  0  0  0  0  0  0  0  0
    9.2768    5.6183   21.4437 C   0  0  0  0  0  0  0  0  0  0  0  0
    8.6315    7.7322   23.1768 C   0  0  0  0  0  0  0  0  0  0  0  0
   13.0537    9.9821   20.5781 C   0  0  0  0  0  0  0  0  0  0  0  0
   10.3850    4.6575   23.2386 O   0  0  0  0  0  0  0  0  0  0  0  0
    4.2069    6.8450   20.7994 C   0  0  0  0  0  0  0  0  0  0  0  0
    3.0726   10.1043   19.8522 O   0  0  0  0  0  0  0  0  0  0  0  0
    5.5057    7.1196   21.1155 C   0  0  0  0  0  0  0  0  0  0  0  0
    7.0367   11.0229   21.9948 O   0  0  0  0  0  0  0  0  0  0  0  0
  1  8  4  0
  1 12  4  0
  2  9  1  0
  2 11  4  0
  2 25  4  0
  3 12  4  0
  3 14  1  0
  3 23  4  0
  4 13  4  0
  4 21  4  0
  4 24  1  0
  5  8  4  0
  5 23  4  0
  6 18  2  0
  7 15  4  0
  7 16  1  0
  7 27  4  0
  8 18  1  0
 10 18  1  0
 10 20  1  0
 11 15  4  0
 11 26  1  0
 13 22  4  0
 16 19  1  0
 16 20  2  0
 17 19  4  0
 17 21  4  0
 19 22  4  0
 20 28  1  0
 25 27  4  0
M  END
$$$$

 Created by Python create_sdf_string function

 28 30  0  0  0  0  0  0  0  0999 V2000
   11.4592   11.2893   18.7941 C   0  0  0  0  0  0  0  0  0  0  0  0
    3.4202    7.9009   20.3866 C   0  0  0  0  0  0  0  0  0  0  0  0
   13.5280   10.3522   19.3586 C   0  0  0  0  0  0  0  0  0  0  0  0
    9.6923    5.6468   22.7891 C   0  0  0  0  0  0  0  0  0  0  0  0
   11.7756   10.2554   20.8841 N   0  0  0  0  0  0  0  0  0  0  0  0
    8.9876   11.9370   19.8757 O   0  0  0  0  0  0  0  0  0  0  0  0
    6.0167    8.4478   21.1089 C   0  0  0  0  0  0  0  0  0  0  0  0
   11.0002   10.8890   20.0262 C   0  0  0  0  0  0  0  0  0  0  0  0
    2.1721    7.7393   20.0315 O   0  0  0  0  0  0  0  0  0  0  0  0
    9.1107   10.3880   21.3769 N   0  0  0  0  0  0  0  0  0  0  0  0
    3.9102    9.2008   20.3124 C   0  0  0  0  0  0  0  0  0  0  0  0
   12.7292   10.9960   18.4597 C   0  0  0  0  0  0  0  0  0  0  0  0
    9.3798    6.6793   23.6625 C   0  0  0  0  0  0  0  0  0  0  0  0
   14.7425   10.0739   19.0802 O   0  0  0  0  0  0  0  0  0  0  0  0
    5.1894    9.4673   20.7118 C   0  0  0  0  0  0  0  0  0  0  0  0
    7.3773    8.8224   21.4870 C   0  0  0  0  0  0  0  0  0  0  0  0
    8.4391    6.6439   21.0235 C   0  0  0  0  0  0  0  0  0  0  0  0
    9.6494   11.1353   20.4167 C   0  0  0  0  0  0  0  0  0  0  0  0
    8.1431    7.6829   21.9046 C   0  0  0  0  0  0  0  0  0  0  0  0
    7.7796   10.1314   21.5115 N   0  0  0  0  0  0  0  0  0  0  0  0
    9.2768    5.6183   21.4437 C   0  0  0  0  0  0  0  0  0  0  0  0
    8.6315    7.7322   23.1768 C   0  0  0  0  0  0  0  0  0  0  0  0
   13.0537    9.9821   20.5781 C   0  0  0  0  0  0  0  0  0  0  0  0
   10.3850    4.6575   23.2386 O   0  0  0  0  0  0  0  0  0  0  0  0
    4.2069    6.8450   20.7994 C   0  0  0  0  0  0  0  0  0  0  0  0
    3.0726   10.1043   19.8522 O   0  0  0  0  0  0  0  0  0  0  0  0
    5.5057    7.1196   21.1155 C   0  0  0  0  0  0  0  0  0  0  0  0
    7.0367   11.0229   21.9948 O   0  0  0  0  0  0  0  0  0  0  0  0
  1  8  4  0
  1 12  4  0
  2  9  1  0
  2 11  4  0
  2 25  4  0
  3 12  4  0
  3 14  1  0
  3 23  4  0
  4 13  4  0
  4 21  4  0
  4 24  1  0
  5  8  4  0
  5 23  4  0
  6 18  2  0
  7 15  4  0
  7 16  1  0
  7 27  4  0
  8 18  1  0
 10 18  1  0
 10 20  1  0
 11 15  4  0
 11 26  1  0
 13 22  4  0
 16 19  1  0
 16 20  2  0
 17 19  4  0
 17 21  4  0
 19 22  4  0
 20 28  1  0
 25 27  4  0
M  END
$$$$

 Created by Python create_sdf_string function

 28 30  0  0  0  0  0  0  0  0999 V2000
   11.4592   11.2893   18.7941 C   0  0  0  0  0  0  0  0  0  0  0  0
    3.4202    7.9009   20.3866 C   0  0  0  0  0  0  0  0  0  0  0  0
   13.5280   10.3522   19.3586 C   0  0  0  0  0  0  0  0  0  0  0  0
    9.6923    5.6468   22.7891 C   0  0  0  0  0  0  0  0  0  0  0  0
   11.7756   10.2554   20.8841 N   0  0  0  0  0  0  0  0  0  0  0  0
    8.9876   11.9370   19.8757 O   0  0  0  0  0  0  0  0  0  0  0  0
    6.0167    8.4478   21.1089 C   0  0  0  0  0  0  0  0  0  0  0  0
   11.0002   10.8890   20.0262 C   0  0  0  0  0  0  0  0  0  0  0  0
    2.1721    7.7393   20.0315 O   0  0  0  0  0  0  0  0  0  0  0  0
    9.1107   10.3880   21.3769 N   0  0  0  0  0  0  0  0  0  0  0  0
    3.9102    9.2008   20.3124 C   0  0  0  0  0  0  0  0  0  0  0  0
   12.7292   10.9960   18.4597 C   0  0  0  0  0  0  0  0  0  0  0  0
    9.3798    6.6793   23.6625 C   0  0  0  0  0  0  0  0  0  0  0  0
   14.7425   10.0739   19.0802 O   0  0  0  0  0  0  0  0  0  0  0  0
    5.1894    9.4673   20.7118 C   0  0  0  0  0  0  0  0  0  0  0  0
    7.3773    8.8224   21.4870 C   0  0  0  0  0  0  0  0  0  0  0  0
    8.4391    6.6439   21.0235 C   0  0  0  0  0  0  0  0  0  0  0  0
    9.6494   11.1353   20.4167 C   0  0  0  0  0  0  0  0  0  0  0  0
    8.1431    7.6829   21.9046 C   0  0  0  0  0  0  0  0  0  0  0  0
    7.7796   10.1314   21.5115 N   0  0  0  0  0  0  0  0  0  0  0  0
    9.2768    5.6183   21.4437 C   0  0  0  0  0  0  0  0  0  0  0  0
    8.6315    7.7322   23.1768 C   0  0  0  0  0  0  0  0  0  0  0  0
   13.0537    9.9821   20.5781 C   0  0  0  0  0  0  0  0  0  0  0  0
   10.3850    4.6575   23.2386 O   0  0  0  0  0  0  0  0  0  0  0  0
    4.2069    6.8450   20.7994 C   0  0  0  0  0  0  0  0  0  0  0  0
    3.0726   10.1043   19.8522 O   0  0  0  0  0  0  0  0  0  0  0  0
    5.5057    7.1196   21.1155 C   0  0  0  0  0  0  0  0  0  0  0  0
    7.0367   11.0229   21.9948 O   0  0  0  0  0  0  0  0  0  0  0  0
  1  8  4  0
  1 12  4  0
  2  9  1  0
  2 11  4  0
  2 25  4  0
  3 12  4  0
  3 14  1  0
  3 23  4  0
  4 13  4  0
  4 21  4  0
  4 24  1  0
  5  8  4  0
  5 23  4  0
  6 18  2  0
  7 15  4  0
  7 16  1  0
  7 27  4  0
  8 18  1  0
 10 18  1  0
 10 20  1  0
 11 15  4  0
 11 26  1  0
 13 22  4  0
 16 19  1  0
 16 20  2  0
 17 19  4  0
 17 21  4  0
 19 22  4  0
 20 28  1  0
 25 27  4  0
M  END
$$$$

 Created by Python create_sdf_string function

 28 30  0  0  0  0  0  0  0  0999 V2000
   11.4592   11.2893   18.7941 C   0  0  0  0  0  0  0  0  0  0  0  0
    3.4202    7.9009   20.3866 C   0  0  0  0  0  0  0  0  0  0  0  0
   13.5280   10.3522   19.3586 C   0  0  0  0  0  0  0  0  0  0  0  0
    9.6923    5.6468   22.7891 C   0  0  0  0  0  0  0  0  0  0  0  0
   11.7756   10.2554   20.8841 N   0  0  0  0  0  0  0  0  0  0  0  0
    8.9876   11.9370   19.8757 O   0  0  0  0  0  0  0  0  0  0  0  0
    6.0167    8.4478   21.1089 C   0  0  0  0  0  0  0  0  0  0  0  0
   11.0002   10.8890   20.0262 C   0  0  0  0  0  0  0  0  0  0  0  0
    2.1721    7.7393   20.0315 O   0  0  0  0  0  0  0  0  0  0  0  0
    9.1107   10.3880   21.3769 N   0  0  0  0  0  0  0  0  0  0  0  0
    3.9102    9.2008   20.3124 C   0  0  0  0  0  0  0  0  0  0  0  0
   12.7292   10.9960   18.4597 C   0  0  0  0  0  0  0  0  0  0  0  0
    9.3798    6.6793   23.6625 C   0  0  0  0  0  0  0  0  0  0  0  0
   14.7425   10.0739   19.0802 O   0  0  0  0  0  0  0  0  0  0  0  0
    5.1894    9.4673   20.7118 C   0  0  0  0  0  0  0  0  0  0  0  0
    7.3773    8.8224   21.4870 C   0  0  0  0  0  0  0  0  0  0  0  0
    8.4391    6.6439   21.0235 C   0  0  0  0  0  0  0  0  0  0  0  0
    9.6494   11.1353   20.4167 C   0  0  0  0  0  0  0  0  0  0  0  0
    8.1431    7.6829   21.9046 C   0  0  0  0  0  0  0  0  0  0  0  0
    7.7796   10.1314   21.5115 N   0  0  0  0  0  0  0  0  0  0  0  0
    9.2768    5.6183   21.4437 C   0  0  0  0  0  0  0  0  0  0  0  0
    8.6315    7.7322   23.1768 C   0  0  0  0  0  0  0  0  0  0  0  0
   13.0537    9.9821   20.5781 C   0  0  0  0  0  0  0  0  0  0  0  0
   10.3850    4.6575   23.2386 O   0  0  0  0  0  0  0  0  0  0  0  0
    4.2069    6.8450   20.7994 C   0  0  0  0  0  0  0  0  0  0  0  0
    3.0726   10.1043   19.8522 O   0  0  0  0  0  0  0  0  0  0  0  0
    5.5057    7.1196   21.1155 C   0  0  0  0  0  0  0  0  0  0  0  0
    7.0367   11.0229   21.9948 O   0  0  0  0  0  0  0  0  0  0  0  0
  1  8  4  0
  1 12  4  0
  2  9  1  0
  2 11  4  0
  2 25  4  0
  3 12  4  0
  3 14  1  0
  3 23  4  0
  4 13  4  0
  4 21  4  0
  4 24  1  0
  5  8  4  0
  5 23  4  0
  6 18  2  0
  7 15  4  0
  7 16  1  0
  7 27  4  0
  8 18  1  0
 10 18  1  0
 10 20  1  0
 11 15  4  0
 11 26  1  0
 13 22  4  0
 16 19  1  0
 16 20  2  0
 17 19  4  0
 17 21  4  0
 19 22  4  0
 20 28  1  0
 25 27  4  0
M  END
$$$$

 Created by Python create_sdf_string function

 28 30  0  0  0  0  0  0  0  0999 V2000
   11.4592   11.2893   18.7941 C   0  0  0  0  0  0  0  0  0  0  0  0
    3.4202    7.9009   20.3866 C   0  0  0  0  0  0  0  0  0  0  0  0
   13.5280   10.3522   19.3586 C   0  0  0  0  0  0  0  0  0  0  0  0
    9.6923    5.6468   22.7891 C   0  0  0  0  0  0  0  0  0  0  0  0
   11.7756   10.2554   20.8841 N   0  0  0  0  0  0  0  0  0  0  0  0
    8.9876   11.9370   19.8757 O   0  0  0  0  0  0  0  0  0  0  0  0
    6.0167    8.4478   21.1089 C   0  0  0  0  0  0  0  0  0  0  0  0
   11.0002   10.8890   20.0262 C   0  0  0  0  0  0  0  0  0  0  0  0
    2.1721    7.7393   20.0315 O   0  0  0  0  0  0  0  0  0  0  0  0
    9.1107   10.3880   21.3769 N   0  0  0  0  0  0  0  0  0  0  0  0
    3.9102    9.2008   20.3124 C   0  0  0  0  0  0  0  0  0  0  0  0
   12.7292   10.9960   18.4597 C   0  0  0  0  0  0  0  0  0  0  0  0
    9.3798    6.6793   23.6625 C   0  0  0  0  0  0  0  0  0  0  0  0
   14.7425   10.0739   19.0802 O   0  0  0  0  0  0  0  0  0  0  0  0
    5.1894    9.4673   20.7118 C   0  0  0  0  0  0  0  0  0  0  0  0
    7.3773    8.8224   21.4870 C   0  0  0  0  0  0  0  0  0  0  0  0
    8.4391    6.6439   21.0235 C   0  0  0  0  0  0  0  0  0  0  0  0
    9.6494   11.1353   20.4167 C   0  0  0  0  0  0  0  0  0  0  0  0
    8.1431    7.6829   21.9046 C   0  0  0  0  0  0  0  0  0  0  0  0
    7.7796   10.1314   21.5115 N   0  0  0  0  0  0  0  0  0  0  0  0
    9.2768    5.6183   21.4437 C   0  0  0  0  0  0  0  0  0  0  0  0
    8.6315    7.7322   23.1768 C   0  0  0  0  0  0  0  0  0  0  0  0
   13.0537    9.9821   20.5781 C   0  0  0  0  0  0  0  0  0  0  0  0
   10.3850    4.6575   23.2386 O   0  0  0  0  0  0  0  0  0  0  0  0
    4.2069    6.8450   20.7994 C   0  0  0  0  0  0  0  0  0  0  0  0
    3.0726   10.1043   19.8522 O   0  0  0  0  0  0  0  0  0  0  0  0
    5.5057    7.1196   21.1155 C   0  0  0  0  0  0  0  0  0  0  0  0
    7.0367   11.0229   21.9948 O   0  0  0  0  0  0  0  0  0  0  0  0
  1  8  4  0
  1 12  4  0
  2  9  1  0
  2 11  4  0
  2 25  4  0
  3 12  4  0
  3 14  1  0
  3 23  4  0
  4 13  4  0
  4 21  4  0
  4 24  1  0
  5  8  4  0
  5 23  4  0
  6 18  2  0
  7 15  4  0
  7 16  1  0
  7 27  4  0
  8 18  1  0
 10 18  1  0
 10 20  1  0
 11 15  4  0
 11 26  1  0
 13 22  4  0
 16 19  1  0
 16 20  2  0
 17 19  4  0
 17 21  4  0
 19 22  4  0
 20 28  1  0
 25 27  4  0
M  END
$$$$

 Created by Python create_sdf_string function

 28 30  0  0  0  0  0  0  0  0999 V2000
   11.4592   11.2893   18.7941 C   0  0  0  0  0  0  0  0  0  0  0  0
    3.4202    7.9009   20.3866 C   0  0  0  0  0  0  0  0  0  0  0  0
   13.5280   10.3522   19.3586 C   0  0  0  0  0  0  0  0  0  0  0  0
    9.6923    5.6468   22.7891 C   0  0  0  0  0  0  0  0  0  0  0  0
   11.7756   10.2554   20.8841 N   0  0  0  0  0  0  0  0  0  0  0  0
    8.9876   11.9370   19.8757 O   0  0  0  0  0  0  0  0  0  0  0  0
    6.0167    8.4478   21.1089 C   0  0  0  0  0  0  0  0  0  0  0  0
   11.0002   10.8890   20.0262 C   0  0  0  0  0  0  0  0  0  0  0  0
    2.1721    7.7393   20.0315 O   0  0  0  0  0  0  0  0  0  0  0  0
    9.1107   10.3880   21.3769 N   0  0  0  0  0  0  0  0  0  0  0  0
    3.9102    9.2008   20.3124 C   0  0  0  0  0  0  0  0  0  0  0  0
   12.7292   10.9960   18.4597 C   0  0  0  0  0  0  0  0  0  0  0  0
    9.3798    6.6793   23.6625 C   0  0  0  0  0  0  0  0  0  0  0  0
   14.7425   10.0739   19.0802 O   0  0  0  0  0  0  0  0  0  0  0  0
    5.1894    9.4673   20.7118 C   0  0  0  0  0  0  0  0  0  0  0  0
    7.3773    8.8224   21.4870 C   0  0  0  0  0  0  0  0  0  0  0  0
    8.4391    6.6439   21.0235 C   0  0  0  0  0  0  0  0  0  0  0  0
    9.6494   11.1353   20.4167 C   0  0  0  0  0  0  0  0  0  0  0  0
    8.1431    7.6829   21.9046 C   0  0  0  0  0  0  0  0  0  0  0  0
    7.7796   10.1314   21.5115 N   0  0  0  0  0  0  0  0  0  0  0  0
    9.2768    5.6183   21.4437 C   0  0  0  0  0  0  0  0  0  0  0  0
    8.6315    7.7322   23.1768 C   0  0  0  0  0  0  0  0  0  0  0  0
   13.0537    9.9821   20.5781 C   0  0  0  0  0  0  0  0  0  0  0  0
   10.3850    4.6575   23.2386 O   0  0  0  0  0  0  0  0  0  0  0  0
    4.2069    6.8450   20.7994 C   0  0  0  0  0  0  0  0  0  0  0  0
    3.0726   10.1043   19.8522 O   0  0  0  0  0  0  0  0  0  0  0  0
    5.5057    7.1196   21.1155 C   0  0  0  0  0  0  0  0  0  0  0  0
    7.0367   11.0229   21.9948 O   0  0  0  0  0  0  0  0  0  0  0  0
  1  8  4  0
  1 12  4  0
  2  9  1  0
  2 11  4  0
  2 25  4  0
  3 12  4  0
  3 14  1  0
  3 23  4  0
  4 13  4  0
  4 21  4  0
  4 24  1  0
  5  8  4  0
  5 23  4  0
  6 18  2  0
  7 15  4  0
  7 16  1  0
  7 27  4  0
  8 18  1  0
 10 18  1  0
 10 20  1  0
 11 15  4  0
 11 26  1  0
 13 22  4  0
 16 19  1  0
 16 20  2  0
 17 19  4  0
 17 21  4  0
 19 22  4  0
 20 28  1  0
 25 27  4  0
M  END
$$$$

 Created by Python create_sdf_string function

 28 30  0  0  0  0  0  0  0  0999 V2000
   11.4592   11.2893   18.7941 C   0  0  0  0  0  0  0  0  0  0  0  0
    3.4202    7.9009   20.3866 C   0  0  0  0  0  0  0  0  0  0  0  0
   13.5280   10.3522   19.3586 C   0  0  0  0  0  0  0  0  0  0  0  0
    9.6923    5.6468   22.7891 C   0  0  0  0  0  0  0  0  0  0  0  0
   11.7756   10.2554   20.8841 N   0  0  0  0  0  0  0  0  0  0  0  0
    8.9876   11.9370   19.8757 O   0  0  0  0  0  0  0  0  0  0  0  0
    6.0167    8.4478   21.1089 C   0  0  0  0  0  0  0  0  0  0  0  0
   11.0002   10.8890   20.0262 C   0  0  0  0  0  0  0  0  0  0  0  0
    2.1721    7.7393   20.0315 O   0  0  0  0  0  0  0  0  0  0  0  0
    9.1107   10.3880   21.3769 N   0  0  0  0  0  0  0  0  0  0  0  0
    3.9102    9.2008   20.3124 C   0  0  0  0  0  0  0  0  0  0  0  0
   12.7292   10.9960   18.4597 C   0  0  0  0  0  0  0  0  0  0  0  0
    9.3798    6.6793   23.6625 C   0  0  0  0  0  0  0  0  0  0  0  0
   14.7425   10.0739   19.0802 O   0  0  0  0  0  0  0  0  0  0  0  0
    5.1894    9.4673   20.7118 C   0  0  0  0  0  0  0  0  0  0  0  0
    7.3773    8.8224   21.4870 C   0  0  0  0  0  0  0  0  0  0  0  0
    8.4391    6.6439   21.0235 C   0  0  0  0  0  0  0  0  0  0  0  0
    9.6494   11.1353   20.4167 C   0  0  0  0  0  0  0  0  0  0  0  0
    8.1431    7.6829   21.9046 C   0  0  0  0  0  0  0  0  0  0  0  0
    7.7796   10.1314   21.5115 N   0  0  0  0  0  0  0  0  0  0  0  0
    9.2768    5.6183   21.4437 C   0  0  0  0  0  0  0  0  0  0  0  0
    8.6315    7.7322   23.1768 C   0  0  0  0  0  0  0  0  0  0  0  0
   13.0537    9.9821   20.5781 C   0  0  0  0  0  0  0  0  0  0  0  0
   10.3850    4.6575   23.2386 O   0  0  0  0  0  0  0  0  0  0  0  0
    4.2069    6.8450   20.7994 C   0  0  0  0  0  0  0  0  0  0  0  0
    3.0726   10.1043   19.8522 O   0  0  0  0  0  0  0  0  0  0  0  0
    5.5057    7.1196   21.1155 C   0  0  0  0  0  0  0  0  0  0  0  0
    7.0367   11.0229   21.9948 O   0  0  0  0  0  0  0  0  0  0  0  0
  1  8  4  0
  1 12  4  0
  2  9  1  0
  2 11  4  0
  2 25  4  0
  3 12  4  0
  3 14  1  0
  3 23  4  0
  4 13  4  0
  4 21  4  0
  4 24  1  0
  5  8  4  0
  5 23  4  0
  6 18  2  0
  7 15  4  0
  7 16  1  0
  7 27  4  0
  8 18  1  0
 10 18  1  0
 10 20  1  0
 11 15  4  0
 11 26  1  0
 13 22  4  0
 16 19  1  0
 16 20  2  0
 17 19  4  0
 17 21  4  0
 19 22  4  0
 20 28  1  0
 25 27  4  0
M  END
$$$$

 Created by Python create_sdf_string function

 28 30  0  0  0  0  0  0  0  0999 V2000
   11.4592   11.2893   18.7941 C   0  0  0  0  0  0  0  0  0  0  0  0
    3.4202    7.9009   20.3866 C   0  0  0  0  0  0  0  0  0  0  0  0
   13.5280   10.3522   19.3586 C   0  0  0  0  0  0  0  0  0  0  0  0
    9.6923    5.6468   22.7891 C   0  0  0  0  0  0  0  0  0  0  0  0
   11.7756   10.2554   20.8841 N   0  0  0  0  0  0  0  0  0  0  0  0
    8.9876   11.9370   19.8757 O   0  0  0  0  0  0  0  0  0  0  0  0
    6.0167    8.4478   21.1089 C   0  0  0  0  0  0  0  0  0  0  0  0
   11.0002   10.8890   20.0262 C   0  0  0  0  0  0  0  0  0  0  0  0
    2.1721    7.7393   20.0315 O   0  0  0  0  0  0  0  0  0  0  0  0
    9.1107   10.3880   21.3769 N   0  0  0  0  0  0  0  0  0  0  0  0
    3.9102    9.2008   20.3124 C   0  0  0  0  0  0  0  0  0  0  0  0
   12.7292   10.9960   18.4597 C   0  0  0  0  0  0  0  0  0  0  0  0
    9.3798    6.6793   23.6625 C   0  0  0  0  0  0  0  0  0  0  0  0
   14.7425   10.0739   19.0802 O   0  0  0  0  0  0  0  0  0  0  0  0
    5.1894    9.4673   20.7118 C   0  0  0  0  0  0  0  0  0  0  0  0
    7.3773    8.8224   21.4870 C   0  0  0  0  0  0  0  0  0  0  0  0
    8.4391    6.6439   21.0235 C   0  0  0  0  0  0  0  0  0  0  0  0
    9.6494   11.1353   20.4167 C   0  0  0  0  0  0  0  0  0  0  0  0
    8.1431    7.6829   21.9046 C   0  0  0  0  0  0  0  0  0  0  0  0
    7.7796   10.1314   21.5115 N   0  0  0  0  0  0  0  0  0  0  0  0
    9.2768    5.6183   21.4437 C   0  0  0  0  0  0  0  0  0  0  0  0
    8.6315    7.7322   23.1768 C   0  0  0  0  0  0  0  0  0  0  0  0
   13.0537    9.9821   20.5781 C   0  0  0  0  0  0  0  0  0  0  0  0
   10.3850    4.6575   23.2386 O   0  0  0  0  0  0  0  0  0  0  0  0
    4.2069    6.8450   20.7994 C   0  0  0  0  0  0  0  0  0  0  0  0
    3.0726   10.1043   19.8522 O   0  0  0  0  0  0  0  0  0  0  0  0
    5.5057    7.1196   21.1155 C   0  0  0  0  0  0  0  0  0  0  0  0
    7.0367   11.0229   21.9948 O   0  0  0  0  0  0  0  0  0  0  0  0
  1  8  4  0
  1 12  4  0
  2  9  1  0
  2 11  4  0
  2 25  4  0
  3 12  4  0
  3 14  1  0
  3 23  4  0
  4 13  4  0
  4 21  4  0
  4 24  1  0
  5  8  4  0
  5 23  4  0
  6 18  2  0
  7 15  4  0
  7 16  1  0
  7 27  4  0
  8 18  1  0
 10 18  1  0
 10 20  1  0
 11 15  4  0
 11 26  1  0
 13 22  4  0
 16 19  1  0
 16 20  2  0
 17 19  4  0
 17 21  4  0
 19 22  4  0
 20 28  1  0
 25 27  4  0
M  END
$$$$

 Created by Python create_sdf_string function

 28 30  0  0  0  0  0  0  0  0999 V2000
   11.4592   11.2893   18.7941 C   0  0  0  0  0  0  0  0  0  0  0  0
    3.4202    7.9009   20.3866 C   0  0  0  0  0  0  0  0  0  0  0  0
   13.5280   10.3522   19.3586 C   0  0  0  0  0  0  0  0  0  0  0  0
    9.6923    5.6468   22.7891 C   0  0  0  0  0  0  0  0  0  0  0  0
   11.7756   10.2554   20.8841 N   0  0  0  0  0  0  0  0  0  0  0  0
    8.9876   11.9370   19.8757 O   0  0  0  0  0  0  0  0  0  0  0  0
    6.0167    8.4478   21.1089 C   0  0  0  0  0  0  0  0  0  0  0  0
   11.0002   10.8890   20.0262 C   0  0  0  0  0  0  0  0  0  0  0  0
    2.1721    7.7393   20.0315 O   0  0  0  0  0  0  0  0  0  0  0  0
    9.1107   10.3880   21.3769 N   0  0  0  0  0  0  0  0  0  0  0  0
    3.9102    9.2008   20.3124 C   0  0  0  0  0  0  0  0  0  0  0  0
   12.7292   10.9960   18.4597 C   0  0  0  0  0  0  0  0  0  0  0  0
    9.3798    6.6793   23.6625 C   0  0  0  0  0  0  0  0  0  0  0  0
   14.7425   10.0739   19.0802 O   0  0  0  0  0  0  0  0  0  0  0  0
    5.1894    9.4673   20.7118 C   0  0  0  0  0  0  0  0  0  0  0  0
    7.3773    8.8224   21.4870 C   0  0  0  0  0  0  0  0  0  0  0  0
    8.4391    6.6439   21.0235 C   0  0  0  0  0  0  0  0  0  0  0  0
    9.6494   11.1353   20.4167 C   0  0  0  0  0  0  0  0  0  0  0  0
    8.1431    7.6829   21.9046 C   0  0  0  0  0  0  0  0  0  0  0  0
    7.7796   10.1314   21.5115 N   0  0  0  0  0  0  0  0  0  0  0  0
    9.2768    5.6183   21.4437 C   0  0  0  0  0  0  0  0  0  0  0  0
    8.6315    7.7322   23.1768 C   0  0  0  0  0  0  0  0  0  0  0  0
   13.0537    9.9821   20.5781 C   0  0  0  0  0  0  0  0  0  0  0  0
   10.3850    4.6575   23.2386 O   0  0  0  0  0  0  0  0  0  0  0  0
    4.2069    6.8450   20.7994 C   0  0  0  0  0  0  0  0  0  0  0  0
    3.0726   10.1043   19.8522 O   0  0  0  0  0  0  0  0  0  0  0  0
    5.5057    7.1196   21.1155 C   0  0  0  0  0  0  0  0  0  0  0  0
    7.0367   11.0229   21.9948 O   0  0  0  0  0  0  0  0  0  0  0  0
  1  8  4  0
  1 12  4  0
  2  9  1  0
  2 11  4  0
  2 25  4  0
  3 12  4  0
  3 14  1  0
  3 23  4  0
  4 13  4  0
  4 21  4  0
  4 24  1  0
  5  8  4  0
  5 23  4  0
  6 18  2  0
  7 15  4  0
  7 16  1  0
  7 27  4  0
  8 18  1  0
 10 18  1  0
 10 20  1  0
 11 15  4  0
 11 26  1  0
 13 22  4  0
 16 19  1  0
 16 20  2  0
 17 19  4  0
 17 21  4  0
 19 22  4  0
 20 28  1  0
 25 27  4  0
M  END
$$$$

 Created by Python create_sdf_string function

 28 30  0  0  0  0  0  0  0  0999 V2000
   11.4592   11.2893   18.7941 C   0  0  0  0  0  0  0  0  0  0  0  0
    3.4202    7.9009   20.3866 C   0  0  0  0  0  0  0  0  0  0  0  0
   13.5280   10.3522   19.3586 C   0  0  0  0  0  0  0  0  0  0  0  0
    9.6923    5.6468   22.7891 C   0  0  0  0  0  0  0  0  0  0  0  0
   11.7756   10.2554   20.8841 N   0  0  0  0  0  0  0  0  0  0  0  0
    8.9876   11.9370   19.8757 O   0  0  0  0  0  0  0  0  0  0  0  0
    6.0167    8.4478   21.1089 C   0  0  0  0  0  0  0  0  0  0  0  0
   11.0002   10.8890   20.0262 C   0  0  0  0  0  0  0  0  0  0  0  0
    2.1721    7.7393   20.0315 O   0  0  0  0  0  0  0  0  0  0  0  0
    9.1107   10.3880   21.3769 N   0  0  0  0  0  0  0  0  0  0  0  0
    3.9102    9.2008   20.3124 C   0  0  0  0  0  0  0  0  0  0  0  0
   12.7292   10.9960   18.4597 C   0  0  0  0  0  0  0  0  0  0  0  0
    9.3798    6.6793   23.6625 C   0  0  0  0  0  0  0  0  0  0  0  0
   14.7425   10.0739   19.0802 O   0  0  0  0  0  0  0  0  0  0  0  0
    5.1894    9.4673   20.7118 C   0  0  0  0  0  0  0  0  0  0  0  0
    7.3773    8.8224   21.4870 C   0  0  0  0  0  0  0  0  0  0  0  0
    8.4391    6.6439   21.0235 C   0  0  0  0  0  0  0  0  0  0  0  0
    9.6494   11.1353   20.4167 C   0  0  0  0  0  0  0  0  0  0  0  0
    8.1431    7.6829   21.9046 C   0  0  0  0  0  0  0  0  0  0  0  0
    7.7796   10.1314   21.5115 N   0  0  0  0  0  0  0  0  0  0  0  0
    9.2768    5.6183   21.4437 C   0  0  0  0  0  0  0  0  0  0  0  0
    8.6315    7.7322   23.1768 C   0  0  0  0  0  0  0  0  0  0  0  0
   13.0537    9.9821   20.5781 C   0  0  0  0  0  0  0  0  0  0  0  0
   10.3850    4.6575   23.2386 O   0  0  0  0  0  0  0  0  0  0  0  0
    4.2069    6.8450   20.7994 C   0  0  0  0  0  0  0  0  0  0  0  0
    3.0726   10.1043   19.8522 O   0  0  0  0  0  0  0  0  0  0  0  0
    5.5057    7.1196   21.1155 C   0  0  0  0  0  0  0  0  0  0  0  0
    7.0367   11.0229   21.9948 O   0  0  0  0  0  0  0  0  0  0  0  0
  1  8  4  0
  1 12  4  0
  2  9  1  0
  2 11  4  0
  2 25  4  0
  3 12  4  0
  3 14  1  0
  3 23  4  0
  4 13  4  0
  4 21  4  0
  4 24  1  0
  5  8  4  0
  5 23  4  0
  6 18  2  0
  7 15  4  0
  7 16  1  0
  7 27  4  0
  8 18  1  0
 10 18  1  0
 10 20  1  0
 11 15  4  0
 11 26  1  0
 13 22  4  0
 16 19  1  0
 16 20  2  0
 17 19  4  0
 17 21  4  0
 19 22  4  0
 20 28  1  0
 25 27  4  0
M  END
$$$$

 Created by Python create_sdf_string function

 28 30  0  0  0  0  0  0  0  0999 V2000
   11.4592   11.2893   18.7941 C   0  0  0  0  0  0  0  0  0  0  0  0
    3.4202    7.9009   20.3866 C   0  0  0  0  0  0  0  0  0  0  0  0
   13.5280   10.3522   19.3586 C   0  0  0  0  0  0  0  0  0  0  0  0
    9.6923    5.6468   22.7891 C   0  0  0  0  0  0  0  0  0  0  0  0
   11.7756   10.2554   20.8841 N   0  0  0  0  0  0  0  0  0  0  0  0
    8.9876   11.9370   19.8757 O   0  0  0  0  0  0  0  0  0  0  0  0
    6.0167    8.4478   21.1089 C   0  0  0  0  0  0  0  0  0  0  0  0
   11.0002   10.8890   20.0262 C   0  0  0  0  0  0  0  0  0  0  0  0
    2.1721    7.7393   20.0315 O   0  0  0  0  0  0  0  0  0  0  0  0
    9.1107   10.3880   21.3769 N   0  0  0  0  0  0  0  0  0  0  0  0
    3.9102    9.2008   20.3124 C   0  0  0  0  0  0  0  0  0  0  0  0
   12.7292   10.9960   18.4597 C   0  0  0  0  0  0  0  0  0  0  0  0
    9.3798    6.6793   23.6625 C   0  0  0  0  0  0  0  0  0  0  0  0
   14.7425   10.0739   19.0802 O   0  0  0  0  0  0  0  0  0  0  0  0
    5.1894    9.4673   20.7118 C   0  0  0  0  0  0  0  0  0  0  0  0
    7.3773    8.8224   21.4870 C   0  0  0  0  0  0  0  0  0  0  0  0
    8.4391    6.6439   21.0235 C   0  0  0  0  0  0  0  0  0  0  0  0
    9.6494   11.1353   20.4167 C   0  0  0  0  0  0  0  0  0  0  0  0
    8.1431    7.6829   21.9046 C   0  0  0  0  0  0  0  0  0  0  0  0
    7.7796   10.1314   21.5115 N   0  0  0  0  0  0  0  0  0  0  0  0
    9.2768    5.6183   21.4437 C   0  0  0  0  0  0  0  0  0  0  0  0
    8.6315    7.7322   23.1768 C   0  0  0  0  0  0  0  0  0  0  0  0
   13.0537    9.9821   20.5781 C   0  0  0  0  0  0  0  0  0  0  0  0
   10.3850    4.6575   23.2386 O   0  0  0  0  0  0  0  0  0  0  0  0
    4.2069    6.8450   20.7994 C   0  0  0  0  0  0  0  0  0  0  0  0
    3.0726   10.1043   19.8522 O   0  0  0  0  0  0  0  0  0  0  0  0
    5.5057    7.1196   21.1155 C   0  0  0  0  0  0  0  0  0  0  0  0
    7.0367   11.0229   21.9948 O   0  0  0  0  0  0  0  0  0  0  0  0
  1  8  4  0
  1 12  4  0
  2  9  1  0
  2 11  4  0
  2 25  4  0
  3 12  4  0
  3 14  1  0
  3 23  4  0
  4 13  4  0
  4 21  4  0
  4 24  1  0
  5  8  4  0
  5 23  4  0
  6 18  2  0
  7 15  4  0
  7 16  1  0
  7 27  4  0
  8 18  1  0
 10 18  1  0
 10 20  1  0
 11 15  4  0
 11 26  1  0
 13 22  4  0
 16 19  1  0
 16 20  2  0
 17 19  4  0
 17 21  4  0
 19 22  4  0
 20 28  1  0
 25 27  4  0
M  END
$$$$

 Created by Python create_sdf_string function

 28 30  0  0  0  0  0  0  0  0999 V2000
   11.4592   11.2893   18.7941 C   0  0  0  0  0  0  0  0  0  0  0  0
    3.4202    7.9009   20.3866 C   0  0  0  0  0  0  0  0  0  0  0  0
   13.5280   10.3522   19.3586 C   0  0  0  0  0  0  0  0  0  0  0  0
    9.6923    5.6468   22.7891 C   0  0  0  0  0  0  0  0  0  0  0  0
   11.7756   10.2554   20.8841 N   0  0  0  0  0  0  0  0  0  0  0  0
    8.9876   11.9370   19.8757 O   0  0  0  0  0  0  0  0  0  0  0  0
    6.0167    8.4478   21.1089 C   0  0  0  0  0  0  0  0  0  0  0  0
   11.0002   10.8890   20.0262 C   0  0  0  0  0  0  0  0  0  0  0  0
    2.1721    7.7393   20.0315 O   0  0  0  0  0  0  0  0  0  0  0  0
    9.1107   10.3880   21.3769 N   0  0  0  0  0  0  0  0  0  0  0  0
    3.9102    9.2008   20.3124 C   0  0  0  0  0  0  0  0  0  0  0  0
   12.7292   10.9960   18.4597 C   0  0  0  0  0  0  0  0  0  0  0  0
    9.3798    6.6793   23.6625 C   0  0  0  0  0  0  0  0  0  0  0  0
   14.7425   10.0739   19.0802 O   0  0  0  0  0  0  0  0  0  0  0  0
    5.1894    9.4673   20.7118 C   0  0  0  0  0  0  0  0  0  0  0  0
    7.3773    8.8224   21.4870 C   0  0  0  0  0  0  0  0  0  0  0  0
    8.4391    6.6439   21.0235 C   0  0  0  0  0  0  0  0  0  0  0  0
    9.6494   11.1353   20.4167 C   0  0  0  0  0  0  0  0  0  0  0  0
    8.1431    7.6829   21.9046 C   0  0  0  0  0  0  0  0  0  0  0  0
    7.7796   10.1314   21.5115 N   0  0  0  0  0  0  0  0  0  0  0  0
    9.2768    5.6183   21.4437 C   0  0  0  0  0  0  0  0  0  0  0  0
    8.6315    7.7322   23.1768 C   0  0  0  0  0  0  0  0  0  0  0  0
   13.0537    9.9821   20.5781 C   0  0  0  0  0  0  0  0  0  0  0  0
   10.3850    4.6575   23.2386 O   0  0  0  0  0  0  0  0  0  0  0  0
    4.2069    6.8450   20.7994 C   0  0  0  0  0  0  0  0  0  0  0  0
    3.0726   10.1043   19.8522 O   0  0  0  0  0  0  0  0  0  0  0  0
    5.5057    7.1196   21.1155 C   0  0  0  0  0  0  0  0  0  0  0  0
    7.0367   11.0229   21.9948 O   0  0  0  0  0  0  0  0  0  0  0  0
  1  8  4  0
  1 12  4  0
  2  9  1  0
  2 11  4  0
  2 25  4  0
  3 12  4  0
  3 14  1  0
  3 23  4  0
  4 13  4  0
  4 21  4  0
  4 24  1  0
  5  8  4  0
  5 23  4  0
  6 18  2  0
  7 15  4  0
  7 16  1  0
  7 27  4  0
  8 18  1  0
 10 18  1  0
 10 20  1  0
 11 15  4  0
 11 26  1  0
 13 22  4  0
 16 19  1  0
 16 20  2  0
 17 19  4  0
 17 21  4  0
 19 22  4  0
 20 28  1  0
 25 27  4  0
M  END
$$$$

 Created by Python create_sdf_string function

 28 30  0  0  0  0  0  0  0  0999 V2000
   11.4592   11.2893   18.7941 C   0  0  0  0  0  0  0  0  0  0  0  0
    3.4202    7.9009   20.3866 C   0  0  0  0  0  0  0  0  0  0  0  0
   13.5280   10.3522   19.3586 C   0  0  0  0  0  0  0  0  0  0  0  0
    9.6923    5.6468   22.7891 C   0  0  0  0  0  0  0  0  0  0  0  0
   11.7756   10.2554   20.8841 N   0  0  0  0  0  0  0  0  0  0  0  0
    8.9876   11.9370   19.8757 O   0  0  0  0  0  0  0  0  0  0  0  0
    6.0167    8.4478   21.1089 C   0  0  0  0  0  0  0  0  0  0  0  0
   11.0002   10.8890   20.0262 C   0  0  0  0  0  0  0  0  0  0  0  0
    2.1721    7.7393   20.0315 O   0  0  0  0  0  0  0  0  0  0  0  0
    9.1107   10.3880   21.3769 N   0  0  0  0  0  0  0  0  0  0  0  0
    3.9102    9.2008   20.3124 C   0  0  0  0  0  0  0  0  0  0  0  0
   12.7292   10.9960   18.4597 C   0  0  0  0  0  0  0  0  0  0  0  0
    9.3798    6.6793   23.6625 C   0  0  0  0  0  0  0  0  0  0  0  0
   14.7425   10.0739   19.0802 O   0  0  0  0  0  0  0  0  0  0  0  0
    5.1894    9.4673   20.7118 C   0  0  0  0  0  0  0  0  0  0  0  0
    7.3773    8.8224   21.4870 C   0  0  0  0  0  0  0  0  0  0  0  0
    8.4391    6.6439   21.0235 C   0  0  0  0  0  0  0  0  0  0  0  0
    9.6494   11.1353   20.4167 C   0  0  0  0  0  0  0  0  0  0  0  0
    8.1431    7.6829   21.9046 C   0  0  0  0  0  0  0  0  0  0  0  0
    7.7796   10.1314   21.5115 N   0  0  0  0  0  0  0  0  0  0  0  0
    9.2768    5.6183   21.4437 C   0  0  0  0  0  0  0  0  0  0  0  0
    8.6315    7.7322   23.1768 C   0  0  0  0  0  0  0  0  0  0  0  0
   13.0537    9.9821   20.5781 C   0  0  0  0  0  0  0  0  0  0  0  0
   10.3850    4.6575   23.2386 O   0  0  0  0  0  0  0  0  0  0  0  0
    4.2069    6.8450   20.7994 C   0  0  0  0  0  0  0  0  0  0  0  0
    3.0726   10.1043   19.8522 O   0  0  0  0  0  0  0  0  0  0  0  0
    5.5057    7.1196   21.1155 C   0  0  0  0  0  0  0  0  0  0  0  0
    7.0367   11.0229   21.9948 O   0  0  0  0  0  0  0  0  0  0  0  0
  1  8  4  0
  1 12  4  0
  2  9  1  0
  2 11  4  0
  2 25  4  0
  3 12  4  0
  3 14  1  0
  3 23  4  0
  4 13  4  0
  4 21  4  0
  4 24  1  0
  5  8  4  0
  5 23  4  0
  6 18  2  0
  7 15  4  0
  7 16  1  0
  7 27  4  0
  8 18  1  0
 10 18  1  0
 10 20  1  0
 11 15  4  0
 11 26  1  0
 13 22  4  0
 16 19  1  0
 16 20  2  0
 17 19  4  0
 17 21  4  0
 19 22  4  0
 20 28  1  0
 25 27  4  0
M  END
$$$$

 Created by Python create_sdf_string function

 28 30  0  0  0  0  0  0  0  0999 V2000
   11.4592   11.2893   18.7941 C   0  0  0  0  0  0  0  0  0  0  0  0
    3.4202    7.9009   20.3866 C   0  0  0  0  0  0  0  0  0  0  0  0
   13.5280   10.3522   19.3586 C   0  0  0  0  0  0  0  0  0  0  0  0
    9.6923    5.6468   22.7891 C   0  0  0  0  0  0  0  0  0  0  0  0
   11.7756   10.2554   20.8841 N   0  0  0  0  0  0  0  0  0  0  0  0
    8.9876   11.9370   19.8757 O   0  0  0  0  0  0  0  0  0  0  0  0
    6.0167    8.4478   21.1089 C   0  0  0  0  0  0  0  0  0  0  0  0
   11.0002   10.8890   20.0262 C   0  0  0  0  0  0  0  0  0  0  0  0
    2.1721    7.7393   20.0315 O   0  0  0  0  0  0  0  0  0  0  0  0
    9.1107   10.3880   21.3769 N   0  0  0  0  0  0  0  0  0  0  0  0
    3.9102    9.2008   20.3124 C   0  0  0  0  0  0  0  0  0  0  0  0
   12.7292   10.9960   18.4597 C   0  0  0  0  0  0  0  0  0  0  0  0
    9.3798    6.6793   23.6625 C   0  0  0  0  0  0  0  0  0  0  0  0
   14.7425   10.0739   19.0802 O   0  0  0  0  0  0  0  0  0  0  0  0
    5.1894    9.4673   20.7118 C   0  0  0  0  0  0  0  0  0  0  0  0
    7.3773    8.8224   21.4870 C   0  0  0  0  0  0  0  0  0  0  0  0
    8.4391    6.6439   21.0235 C   0  0  0  0  0  0  0  0  0  0  0  0
    9.6494   11.1353   20.4167 C   0  0  0  0  0  0  0  0  0  0  0  0
    8.1431    7.6829   21.9046 C   0  0  0  0  0  0  0  0  0  0  0  0
    7.7796   10.1314   21.5115 N   0  0  0  0  0  0  0  0  0  0  0  0
    9.2768    5.6183   21.4437 C   0  0  0  0  0  0  0  0  0  0  0  0
    8.6315    7.7322   23.1768 C   0  0  0  0  0  0  0  0  0  0  0  0
   13.0537    9.9821   20.5781 C   0  0  0  0  0  0  0  0  0  0  0  0
   10.3850    4.6575   23.2386 O   0  0  0  0  0  0  0  0  0  0  0  0
    4.2069    6.8450   20.7994 C   0  0  0  0  0  0  0  0  0  0  0  0
    3.0726   10.1043   19.8522 O   0  0  0  0  0  0  0  0  0  0  0  0
    5.5057    7.1196   21.1155 C   0  0  0  0  0  0  0  0  0  0  0  0
    7.0367   11.0229   21.9948 O   0  0  0  0  0  0  0  0  0  0  0  0
  1  8  4  0
  1 12  4  0
  2  9  1  0
  2 11  4  0
  2 25  4  0
  3 12  4  0
  3 14  1  0
  3 23  4  0
  4 13  4  0
  4 21  4  0
  4 24  1  0
  5  8  4  0
  5 23  4  0
  6 18  2  0
  7 15  4  0
  7 16  1  0
  7 27  4  0
  8 18  1  0
 10 18  1  0
 10 20  1  0
 11 15  4  0
 11 26  1  0
 13 22  4  0
 16 19  1  0
 16 20  2  0
 17 19  4  0
 17 21  4  0
 19 22  4  0
 20 28  1  0
 25 27  4  0
M  END
$$$$

 Created by Python create_sdf_string function

 28 30  0  0  0  0  0  0  0  0999 V2000
   11.4592   11.2893   18.7941 C   0  0  0  0  0  0  0  0  0  0  0  0
    3.4202    7.9009   20.3866 C   0  0  0  0  0  0  0  0  0  0  0  0
   13.5280   10.3522   19.3586 C   0  0  0  0  0  0  0  0  0  0  0  0
    9.6923    5.6468   22.7891 C   0  0  0  0  0  0  0  0  0  0  0  0
   11.7756   10.2554   20.8841 N   0  0  0  0  0  0  0  0  0  0  0  0
    8.9876   11.9370   19.8757 O   0  0  0  0  0  0  0  0  0  0  0  0
    6.0167    8.4478   21.1089 C   0  0  0  0  0  0  0  0  0  0  0  0
   11.0002   10.8890   20.0262 C   0  0  0  0  0  0  0  0  0  0  0  0
    2.1721    7.7393   20.0315 O   0  0  0  0  0  0  0  0  0  0  0  0
    9.1107   10.3880   21.3769 N   0  0  0  0  0  0  0  0  0  0  0  0
    3.9102    9.2008   20.3124 C   0  0  0  0  0  0  0  0  0  0  0  0
   12.7292   10.9960   18.4597 C   0  0  0  0  0  0  0  0  0  0  0  0
    9.3798    6.6793   23.6625 C   0  0  0  0  0  0  0  0  0  0  0  0
   14.7425   10.0739   19.0802 O   0  0  0  0  0  0  0  0  0  0  0  0
    5.1894    9.4673   20.7118 C   0  0  0  0  0  0  0  0  0  0  0  0
    7.3773    8.8224   21.4870 C   0  0  0  0  0  0  0  0  0  0  0  0
    8.4391    6.6439   21.0235 C   0  0  0  0  0  0  0  0  0  0  0  0
    9.6494   11.1353   20.4167 C   0  0  0  0  0  0  0  0  0  0  0  0
    8.1431    7.6829   21.9046 C   0  0  0  0  0  0  0  0  0  0  0  0
    7.7796   10.1314   21.5115 N   0  0  0  0  0  0  0  0  0  0  0  0
    9.2768    5.6183   21.4437 C   0  0  0  0  0  0  0  0  0  0  0  0
    8.6315    7.7322   23.1768 C   0  0  0  0  0  0  0  0  0  0  0  0
   13.0537    9.9821   20.5781 C   0  0  0  0  0  0  0  0  0  0  0  0
   10.3850    4.6575   23.2386 O   0  0  0  0  0  0  0  0  0  0  0  0
    4.2069    6.8450   20.7994 C   0  0  0  0  0  0  0  0  0  0  0  0
    3.0726   10.1043   19.8522 O   0  0  0  0  0  0  0  0  0  0  0  0
    5.5057    7.1196   21.1155 C   0  0  0  0  0  0  0  0  0  0  0  0
    7.0367   11.0229   21.9948 O   0  0  0  0  0  0  0  0  0  0  0  0
  1  8  4  0
  1 12  4  0
  2  9  1  0
  2 11  4  0
  2 25  4  0
  3 12  4  0
  3 14  1  0
  3 23  4  0
  4 13  4  0
  4 21  4  0
  4 24  1  0
  5  8  4  0
  5 23  4  0
  6 18  2  0
  7 15  4  0
  7 16  1  0
  7 27  4  0
  8 18  1  0
 10 18  1  0
 10 20  1  0
 11 15  4  0
 11 26  1  0
 13 22  4  0
 16 19  1  0
 16 20  2  0
 17 19  4  0
 17 21  4  0
 19 22  4  0
 20 28  1  0
 25 27  4  0
M  END
$$$$

 Created by Python create_sdf_string function

 28 30  0  0  0  0  0  0  0  0999 V2000
   11.4592   11.2893   18.7941 C   0  0  0  0  0  0  0  0  0  0  0  0
    3.4202    7.9009   20.3866 C   0  0  0  0  0  0  0  0  0  0  0  0
   13.5280   10.3522   19.3586 C   0  0  0  0  0  0  0  0  0  0  0  0
    9.6923    5.6468   22.7891 C   0  0  0  0  0  0  0  0  0  0  0  0
   11.7756   10.2554   20.8841 N   0  0  0  0  0  0  0  0  0  0  0  0
    8.9876   11.9370   19.8757 O   0  0  0  0  0  0  0  0  0  0  0  0
    6.0167    8.4478   21.1089 C   0  0  0  0  0  0  0  0  0  0  0  0
   11.0002   10.8890   20.0262 C   0  0  0  0  0  0  0  0  0  0  0  0
    2.1721    7.7393   20.0315 O   0  0  0  0  0  0  0  0  0  0  0  0
    9.1107   10.3880   21.3769 N   0  0  0  0  0  0  0  0  0  0  0  0
    3.9102    9.2008   20.3124 C   0  0  0  0  0  0  0  0  0  0  0  0
   12.7292   10.9960   18.4597 C   0  0  0  0  0  0  0  0  0  0  0  0
    9.3798    6.6793   23.6625 C   0  0  0  0  0  0  0  0  0  0  0  0
   14.7425   10.0739   19.0802 O   0  0  0  0  0  0  0  0  0  0  0  0
    5.1894    9.4673   20.7118 C   0  0  0  0  0  0  0  0  0  0  0  0
    7.3773    8.8224   21.4870 C   0  0  0  0  0  0  0  0  0  0  0  0
    8.4391    6.6439   21.0235 C   0  0  0  0  0  0  0  0  0  0  0  0
    9.6494   11.1353   20.4167 C   0  0  0  0  0  0  0  0  0  0  0  0
    8.1431    7.6829   21.9046 C   0  0  0  0  0  0  0  0  0  0  0  0
    7.7796   10.1314   21.5115 N   0  0  0  0  0  0  0  0  0  0  0  0
    9.2768    5.6183   21.4437 C   0  0  0  0  0  0  0  0  0  0  0  0
    8.6315    7.7322   23.1768 C   0  0  0  0  0  0  0  0  0  0  0  0
   13.0537    9.9821   20.5781 C   0  0  0  0  0  0  0  0  0  0  0  0
   10.3850    4.6575   23.2386 O   0  0  0  0  0  0  0  0  0  0  0  0
    4.2069    6.8450   20.7994 C   0  0  0  0  0  0  0  0  0  0  0  0
    3.0726   10.1043   19.8522 O   0  0  0  0  0  0  0  0  0  0  0  0
    5.5057    7.1196   21.1155 C   0  0  0  0  0  0  0  0  0  0  0  0
    7.0367   11.0229   21.9948 O   0  0  0  0  0  0  0  0  0  0  0  0
  1  8  4  0
  1 12  4  0
  2  9  1  0
  2 11  4  0
  2 25  4  0
  3 12  4  0
  3 14  1  0
  3 23  4  0
  4 13  4  0
  4 21  4  0
  4 24  1  0
  5  8  4  0
  5 23  4  0
  6 18  2  0
  7 15  4  0
  7 16  1  0
  7 27  4  0
  8 18  1  0
 10 18  1  0
 10 20  1  0
 11 15  4  0
 11 26  1  0
 13 22  4  0
 16 19  1  0
 16 20  2  0
 17 19  4  0
 17 21  4  0
 19 22  4  0
 20 28  1  0
 25 27  4  0
M  END
$$$$

 Created by Python create_sdf_string function

 28 30  0  0  0  0  0  0  0  0999 V2000
   11.4592   11.2893   18.7941 C   0  0  0  0  0  0  0  0  0  0  0  0
    3.4202    7.9009   20.3866 C   0  0  0  0  0  0  0  0  0  0  0  0
   13.5280   10.3522   19.3586 C   0  0  0  0  0  0  0  0  0  0  0  0
    9.6923    5.6468   22.7891 C   0  0  0  0  0  0  0  0  0  0  0  0
   11.7756   10.2554   20.8841 N   0  0  0  0  0  0  0  0  0  0  0  0
    8.9876   11.9370   19.8757 O   0  0  0  0  0  0  0  0  0  0  0  0
    6.0167    8.4478   21.1089 C   0  0  0  0  0  0  0  0  0  0  0  0
   11.0002   10.8890   20.0262 C   0  0  0  0  0  0  0  0  0  0  0  0
    2.1721    7.7393   20.0315 O   0  0  0  0  0  0  0  0  0  0  0  0
    9.1107   10.3880   21.3769 N   0  0  0  0  0  0  0  0  0  0  0  0
    3.9102    9.2008   20.3124 C   0  0  0  0  0  0  0  0  0  0  0  0
   12.7292   10.9960   18.4597 C   0  0  0  0  0  0  0  0  0  0  0  0
    9.3798    6.6793   23.6625 C   0  0  0  0  0  0  0  0  0  0  0  0
   14.7425   10.0739   19.0802 O   0  0  0  0  0  0  0  0  0  0  0  0
    5.1894    9.4673   20.7118 C   0  0  0  0  0  0  0  0  0  0  0  0
    7.3773    8.8224   21.4870 C   0  0  0  0  0  0  0  0  0  0  0  0
    8.4391    6.6439   21.0235 C   0  0  0  0  0  0  0  0  0  0  0  0
    9.6494   11.1353   20.4167 C   0  0  0  0  0  0  0  0  0  0  0  0
    8.1431    7.6829   21.9046 C   0  0  0  0  0  0  0  0  0  0  0  0
    7.7796   10.1314   21.5115 N   0  0  0  0  0  0  0  0  0  0  0  0
    9.2768    5.6183   21.4437 C   0  0  0  0  0  0  0  0  0  0  0  0
    8.6315    7.7322   23.1768 C   0  0  0  0  0  0  0  0  0  0  0  0
   13.0537    9.9821   20.5781 C   0  0  0  0  0  0  0  0  0  0  0  0
   10.3850    4.6575   23.2386 O   0  0  0  0  0  0  0  0  0  0  0  0
    4.2069    6.8450   20.7994 C   0  0  0  0  0  0  0  0  0  0  0  0
    3.0726   10.1043   19.8522 O   0  0  0  0  0  0  0  0  0  0  0  0
    5.5057    7.1196   21.1155 C   0  0  0  0  0  0  0  0  0  0  0  0
    7.0367   11.0229   21.9948 O   0  0  0  0  0  0  0  0  0  0  0  0
  1  8  4  0
  1 12  4  0
  2  9  1  0
  2 11  4  0
  2 25  4  0
  3 12  4  0
  3 14  1  0
  3 23  4  0
  4 13  4  0
  4 21  4  0
  4 24  1  0
  5  8  4  0
  5 23  4  0
  6 18  2  0
  7 15  4  0
  7 16  1  0
  7 27  4  0
  8 18  1  0
 10 18  1  0
 10 20  1  0
 11 15  4  0
 11 26  1  0
 13 22  4  0
 16 19  1  0
 16 20  2  0
 17 19  4  0
 17 21  4  0
 19 22  4  0
 20 28  1  0
 25 27  4  0
M  END
$$$$

 Created by Python create_sdf_string function

 28 30  0  0  0  0  0  0  0  0999 V2000
   11.4592   11.2893   18.7941 C   0  0  0  0  0  0  0  0  0  0  0  0
    3.4202    7.9009   20.3866 C   0  0  0  0  0  0  0  0  0  0  0  0
   13.5280   10.3522   19.3586 C   0  0  0  0  0  0  0  0  0  0  0  0
    9.6923    5.6468   22.7891 C   0  0  0  0  0  0  0  0  0  0  0  0
   11.7756   10.2554   20.8841 N   0  0  0  0  0  0  0  0  0  0  0  0
    8.9876   11.9370   19.8757 O   0  0  0  0  0  0  0  0  0  0  0  0
    6.0167    8.4478   21.1089 C   0  0  0  0  0  0  0  0  0  0  0  0
   11.0002   10.8890   20.0262 C   0  0  0  0  0  0  0  0  0  0  0  0
    2.1721    7.7393   20.0315 O   0  0  0  0  0  0  0  0  0  0  0  0
    9.1107   10.3880   21.3769 N   0  0  0  0  0  0  0  0  0  0  0  0
    3.9102    9.2008   20.3124 C   0  0  0  0  0  0  0  0  0  0  0  0
   12.7292   10.9960   18.4597 C   0  0  0  0  0  0  0  0  0  0  0  0
    9.3798    6.6793   23.6625 C   0  0  0  0  0  0  0  0  0  0  0  0
   14.7425   10.0739   19.0802 O   0  0  0  0  0  0  0  0  0  0  0  0
    5.1894    9.4673   20.7118 C   0  0  0  0  0  0  0  0  0  0  0  0
    7.3773    8.8224   21.4870 C   0  0  0  0  0  0  0  0  0  0  0  0
    8.4391    6.6439   21.0235 C   0  0  0  0  0  0  0  0  0  0  0  0
    9.6494   11.1353   20.4167 C   0  0  0  0  0  0  0  0  0  0  0  0
    8.1431    7.6829   21.9046 C   0  0  0  0  0  0  0  0  0  0  0  0
    7.7796   10.1314   21.5115 N   0  0  0  0  0  0  0  0  0  0  0  0
    9.2768    5.6183   21.4437 C   0  0  0  0  0  0  0  0  0  0  0  0
    8.6315    7.7322   23.1768 C   0  0  0  0  0  0  0  0  0  0  0  0
   13.0537    9.9821   20.5781 C   0  0  0  0  0  0  0  0  0  0  0  0
   10.3850    4.6575   23.2386 O   0  0  0  0  0  0  0  0  0  0  0  0
    4.2069    6.8450   20.7994 C   0  0  0  0  0  0  0  0  0  0  0  0
    3.0726   10.1043   19.8522 O   0  0  0  0  0  0  0  0  0  0  0  0
    5.5057    7.1196   21.1155 C   0  0  0  0  0  0  0  0  0  0  0  0
    7.0367   11.0229   21.9948 O   0  0  0  0  0  0  0  0  0  0  0  0
  1  8  4  0
  1 12  4  0
  2  9  1  0
  2 11  4  0
  2 25  4  0
  3 12  4  0
  3 14  1  0
  3 23  4  0
  4 13  4  0
  4 21  4  0
  4 24  1  0
  5  8  4  0
  5 23  4  0
  6 18  2  0
  7 15  4  0
  7 16  1  0
  7 27  4  0
  8 18  1  0
 10 18  1  0
 10 20  1  0
 11 15  4  0
 11 26  1  0
 13 22  4  0
 16 19  1  0
 16 20  2  0
 17 19  4  0
 17 21  4  0
 19 22  4  0
 20 28  1  0
 25 27  4  0
M  END
$$$$

 Created by Python create_sdf_string function

 28 30  0  0  0  0  0  0  0  0999 V2000
   11.4592   11.2893   18.7941 C   0  0  0  0  0  0  0  0  0  0  0  0
    3.4202    7.9009   20.3866 C   0  0  0  0  0  0  0  0  0  0  0  0
   13.5280   10.3522   19.3586 C   0  0  0  0  0  0  0  0  0  0  0  0
    9.6923    5.6468   22.7891 C   0  0  0  0  0  0  0  0  0  0  0  0
   11.7756   10.2554   20.8841 N   0  0  0  0  0  0  0  0  0  0  0  0
    8.9876   11.9370   19.8757 O   0  0  0  0  0  0  0  0  0  0  0  0
    6.0167    8.4478   21.1089 C   0  0  0  0  0  0  0  0  0  0  0  0
   11.0002   10.8890   20.0262 C   0  0  0  0  0  0  0  0  0  0  0  0
    2.1721    7.7393   20.0315 O   0  0  0  0  0  0  0  0  0  0  0  0
    9.1107   10.3880   21.3769 N   0  0  0  0  0  0  0  0  0  0  0  0
    3.9102    9.2008   20.3124 C   0  0  0  0  0  0  0  0  0  0  0  0
   12.7292   10.9960   18.4597 C   0  0  0  0  0  0  0  0  0  0  0  0
    9.3798    6.6793   23.6625 C   0  0  0  0  0  0  0  0  0  0  0  0
   14.7425   10.0739   19.0802 O   0  0  0  0  0  0  0  0  0  0  0  0
    5.1894    9.4673   20.7118 C   0  0  0  0  0  0  0  0  0  0  0  0
    7.3773    8.8224   21.4870 C   0  0  0  0  0  0  0  0  0  0  0  0
    8.4391    6.6439   21.0235 C   0  0  0  0  0  0  0  0  0  0  0  0
    9.6494   11.1353   20.4167 C   0  0  0  0  0  0  0  0  0  0  0  0
    8.1431    7.6829   21.9046 C   0  0  0  0  0  0  0  0  0  0  0  0
    7.7796   10.1314   21.5115 N   0  0  0  0  0  0  0  0  0  0  0  0
    9.2768    5.6183   21.4437 C   0  0  0  0  0  0  0  0  0  0  0  0
    8.6315    7.7322   23.1768 C   0  0  0  0  0  0  0  0  0  0  0  0
   13.0537    9.9821   20.5781 C   0  0  0  0  0  0  0  0  0  0  0  0
   10.3850    4.6575   23.2386 O   0  0  0  0  0  0  0  0  0  0  0  0
    4.2069    6.8450   20.7994 C   0  0  0  0  0  0  0  0  0  0  0  0
    3.0726   10.1043   19.8522 O   0  0  0  0  0  0  0  0  0  0  0  0
    5.5057    7.1196   21.1155 C   0  0  0  0  0  0  0  0  0  0  0  0
    7.0367   11.0229   21.9948 O   0  0  0  0  0  0  0  0  0  0  0  0
  1  8  4  0
  1 12  4  0
  2  9  1  0
  2 11  4  0
  2 25  4  0
  3 12  4  0
  3 14  1  0
  3 23  4  0
  4 13  4  0
  4 21  4  0
  4 24  1  0
  5  8  4  0
  5 23  4  0
  6 18  2  0
  7 15  4  0
  7 16  1  0
  7 27  4  0
  8 18  1  0
 10 18  1  0
 10 20  1  0
 11 15  4  0
 11 26  1  0
 13 22  4  0
 16 19  1  0
 16 20  2  0
 17 19  4  0
 17 21  4  0
 19 22  4  0
 20 28  1  0
 25 27  4  0
M  END
$$$$

 Created by Python create_sdf_string function

 28 30  0  0  0  0  0  0  0  0999 V2000
   11.4592   11.2893   18.7941 C   0  0  0  0  0  0  0  0  0  0  0  0
    3.4202    7.9009   20.3866 C   0  0  0  0  0  0  0  0  0  0  0  0
   13.5280   10.3522   19.3586 C   0  0  0  0  0  0  0  0  0  0  0  0
    9.6923    5.6468   22.7891 C   0  0  0  0  0  0  0  0  0  0  0  0
   11.7756   10.2554   20.8841 N   0  0  0  0  0  0  0  0  0  0  0  0
    8.9876   11.9370   19.8757 O   0  0  0  0  0  0  0  0  0  0  0  0
    6.0167    8.4478   21.1089 C   0  0  0  0  0  0  0  0  0  0  0  0
   11.0002   10.8890   20.0262 C   0  0  0  0  0  0  0  0  0  0  0  0
    2.1721    7.7393   20.0315 O   0  0  0  0  0  0  0  0  0  0  0  0
    9.1107   10.3880   21.3769 N   0  0  0  0  0  0  0  0  0  0  0  0
    3.9102    9.2008   20.3124 C   0  0  0  0  0  0  0  0  0  0  0  0
   12.7292   10.9960   18.4597 C   0  0  0  0  0  0  0  0  0  0  0  0
    9.3798    6.6793   23.6625 C   0  0  0  0  0  0  0  0  0  0  0  0
   14.7425   10.0739   19.0802 O   0  0  0  0  0  0  0  0  0  0  0  0
    5.1894    9.4673   20.7118 C   0  0  0  0  0  0  0  0  0  0  0  0
    7.3773    8.8224   21.4870 C   0  0  0  0  0  0  0  0  0  0  0  0
    8.4391    6.6439   21.0235 C   0  0  0  0  0  0  0  0  0  0  0  0
    9.6494   11.1353   20.4167 C   0  0  0  0  0  0  0  0  0  0  0  0
    8.1431    7.6829   21.9046 C   0  0  0  0  0  0  0  0  0  0  0  0
    7.7796   10.1314   21.5115 N   0  0  0  0  0  0  0  0  0  0  0  0
    9.2768    5.6183   21.4437 C   0  0  0  0  0  0  0  0  0  0  0  0
    8.6315    7.7322   23.1768 C   0  0  0  0  0  0  0  0  0  0  0  0
   13.0537    9.9821   20.5781 C   0  0  0  0  0  0  0  0  0  0  0  0
   10.3850    4.6575   23.2386 O   0  0  0  0  0  0  0  0  0  0  0  0
    4.2069    6.8450   20.7994 C   0  0  0  0  0  0  0  0  0  0  0  0
    3.0726   10.1043   19.8522 O   0  0  0  0  0  0  0  0  0  0  0  0
    5.5057    7.1196   21.1155 C   0  0  0  0  0  0  0  0  0  0  0  0
    7.0367   11.0229   21.9948 O   0  0  0  0  0  0  0  0  0  0  0  0
  1  8  4  0
  1 12  4  0
  2  9  1  0
  2 11  4  0
  2 25  4  0
  3 12  4  0
  3 14  1  0
  3 23  4  0
  4 13  4  0
  4 21  4  0
  4 24  1  0
  5  8  4  0
  5 23  4  0
  6 18  2  0
  7 15  4  0
  7 16  1  0
  7 27  4  0
  8 18  1  0
 10 18  1  0
 10 20  1  0
 11 15  4  0
 11 26  1  0
 13 22  4  0
 16 19  1  0
 16 20  2  0
 17 19  4  0
 17 21  4  0
 19 22  4  0
 20 28  1  0
 25 27  4  0
M  END
$$$$

 Created by Python create_sdf_string function

 28 30  0  0  0  0  0  0  0  0999 V2000
   11.4592   11.2893   18.7941 C   0  0  0  0  0  0  0  0  0  0  0  0
    3.4202    7.9009   20.3866 C   0  0  0  0  0  0  0  0  0  0  0  0
   13.5280   10.3522   19.3586 C   0  0  0  0  0  0  0  0  0  0  0  0
    9.6923    5.6468   22.7891 C   0  0  0  0  0  0  0  0  0  0  0  0
   11.7756   10.2554   20.8841 N   0  0  0  0  0  0  0  0  0  0  0  0
    8.9876   11.9370   19.8757 O   0  0  0  0  0  0  0  0  0  0  0  0
    6.0167    8.4478   21.1089 C   0  0  0  0  0  0  0  0  0  0  0  0
   11.0002   10.8890   20.0262 C   0  0  0  0  0  0  0  0  0  0  0  0
    2.1721    7.7393   20.0315 O   0  0  0  0  0  0  0  0  0  0  0  0
    9.1107   10.3880   21.3769 N   0  0  0  0  0  0  0  0  0  0  0  0
    3.9102    9.2008   20.3124 C   0  0  0  0  0  0  0  0  0  0  0  0
   12.7292   10.9960   18.4597 C   0  0  0  0  0  0  0  0  0  0  0  0
    9.3798    6.6793   23.6625 C   0  0  0  0  0  0  0  0  0  0  0  0
   14.7425   10.0739   19.0802 O   0  0  0  0  0  0  0  0  0  0  0  0
    5.1894    9.4673   20.7118 C   0  0  0  0  0  0  0  0  0  0  0  0
    7.3773    8.8224   21.4870 C   0  0  0  0  0  0  0  0  0  0  0  0
    8.4391    6.6439   21.0235 C   0  0  0  0  0  0  0  0  0  0  0  0
    9.6494   11.1353   20.4167 C   0  0  0  0  0  0  0  0  0  0  0  0
    8.1431    7.6829   21.9046 C   0  0  0  0  0  0  0  0  0  0  0  0
    7.7796   10.1314   21.5115 N   0  0  0  0  0  0  0  0  0  0  0  0
    9.2768    5.6183   21.4437 C   0  0  0  0  0  0  0  0  0  0  0  0
    8.6315    7.7322   23.1768 C   0  0  0  0  0  0  0  0  0  0  0  0
   13.0537    9.9821   20.5781 C   0  0  0  0  0  0  0  0  0  0  0  0
   10.3850    4.6575   23.2386 O   0  0  0  0  0  0  0  0  0  0  0  0
    4.2069    6.8450   20.7994 C   0  0  0  0  0  0  0  0  0  0  0  0
    3.0726   10.1043   19.8522 O   0  0  0  0  0  0  0  0  0  0  0  0
    5.5057    7.1196   21.1155 C   0  0  0  0  0  0  0  0  0  0  0  0
    7.0367   11.0229   21.9948 O   0  0  0  0  0  0  0  0  0  0  0  0
  1  8  4  0
  1 12  4  0
  2  9  1  0
  2 11  4  0
  2 25  4  0
  3 12  4  0
  3 14  1  0
  3 23  4  0
  4 13  4  0
  4 21  4  0
  4 24  1  0
  5  8  4  0
  5 23  4  0
  6 18  2  0
  7 15  4  0
  7 16  1  0
  7 27  4  0
  8 18  1  0
 10 18  1  0
 10 20  1  0
 11 15  4  0
 11 26  1  0
 13 22  4  0
 16 19  1  0
 16 20  2  0
 17 19  4  0
 17 21  4  0
 19 22  4  0
 20 28  1  0
 25 27  4  0
M  END
$$$$

 Created by Python create_sdf_string function

 28 30  0  0  0  0  0  0  0  0999 V2000
   11.4592   11.2893   18.7941 C   0  0  0  0  0  0  0  0  0  0  0  0
    3.4202    7.9009   20.3866 C   0  0  0  0  0  0  0  0  0  0  0  0
   13.5280   10.3522   19.3586 C   0  0  0  0  0  0  0  0  0  0  0  0
    9.6923    5.6468   22.7891 C   0  0  0  0  0  0  0  0  0  0  0  0
   11.7756   10.2554   20.8841 N   0  0  0  0  0  0  0  0  0  0  0  0
    8.9876   11.9370   19.8757 O   0  0  0  0  0  0  0  0  0  0  0  0
    6.0167    8.4478   21.1089 C   0  0  0  0  0  0  0  0  0  0  0  0
   11.0002   10.8890   20.0262 C   0  0  0  0  0  0  0  0  0  0  0  0
    2.1721    7.7393   20.0315 O   0  0  0  0  0  0  0  0  0  0  0  0
    9.1107   10.3880   21.3769 N   0  0  0  0  0  0  0  0  0  0  0  0
    3.9102    9.2008   20.3124 C   0  0  0  0  0  0  0  0  0  0  0  0
   12.7292   10.9960   18.4597 C   0  0  0  0  0  0  0  0  0  0  0  0
    9.3798    6.6793   23.6625 C   0  0  0  0  0  0  0  0  0  0  0  0
   14.7425   10.0739   19.0802 O   0  0  0  0  0  0  0  0  0  0  0  0
    5.1894    9.4673   20.7118 C   0  0  0  0  0  0  0  0  0  0  0  0
    7.3773    8.8224   21.4870 C   0  0  0  0  0  0  0  0  0  0  0  0
    8.4391    6.6439   21.0235 C   0  0  0  0  0  0  0  0  0  0  0  0
    9.6494   11.1353   20.4167 C   0  0  0  0  0  0  0  0  0  0  0  0
    8.1431    7.6829   21.9046 C   0  0  0  0  0  0  0  0  0  0  0  0
    7.7796   10.1314   21.5115 N   0  0  0  0  0  0  0  0  0  0  0  0
    9.2768    5.6183   21.4437 C   0  0  0  0  0  0  0  0  0  0  0  0
    8.6315    7.7322   23.1768 C   0  0  0  0  0  0  0  0  0  0  0  0
   13.0537    9.9821   20.5781 C   0  0  0  0  0  0  0  0  0  0  0  0
   10.3850    4.6575   23.2386 O   0  0  0  0  0  0  0  0  0  0  0  0
    4.2069    6.8450   20.7994 C   0  0  0  0  0  0  0  0  0  0  0  0
    3.0726   10.1043   19.8522 O   0  0  0  0  0  0  0  0  0  0  0  0
    5.5057    7.1196   21.1155 C   0  0  0  0  0  0  0  0  0  0  0  0
    7.0367   11.0229   21.9948 O   0  0  0  0  0  0  0  0  0  0  0  0
  1  8  4  0
  1 12  4  0
  2  9  1  0
  2 11  4  0
  2 25  4  0
  3 12  4  0
  3 14  1  0
  3 23  4  0
  4 13  4  0
  4 21  4  0
  4 24  1  0
  5  8  4  0
  5 23  4  0
  6 18  2  0
  7 15  4  0
  7 16  1  0
  7 27  4  0
  8 18  1  0
 10 18  1  0
 10 20  1  0
 11 15  4  0
 11 26  1  0
 13 22  4  0
 16 19  1  0
 16 20  2  0
 17 19  4  0
 17 21  4  0
 19 22  4  0
 20 28  1  0
 25 27  4  0
M  END
$$$$

 Created by Python create_sdf_string function

 28 30  0  0  0  0  0  0  0  0999 V2000
   11.4592   11.2893   18.7941 C   0  0  0  0  0  0  0  0  0  0  0  0
    3.4202    7.9009   20.3866 C   0  0  0  0  0  0  0  0  0  0  0  0
   13.5280   10.3522   19.3586 C   0  0  0  0  0  0  0  0  0  0  0  0
    9.6923    5.6468   22.7891 C   0  0  0  0  0  0  0  0  0  0  0  0
   11.7756   10.2554   20.8841 N   0  0  0  0  0  0  0  0  0  0  0  0
    8.9876   11.9370   19.8757 O   0  0  0  0  0  0  0  0  0  0  0  0
    6.0167    8.4478   21.1089 C   0  0  0  0  0  0  0  0  0  0  0  0
   11.0002   10.8890   20.0262 C   0  0  0  0  0  0  0  0  0  0  0  0
    2.1721    7.7393   20.0315 O   0  0  0  0  0  0  0  0  0  0  0  0
    9.1107   10.3880   21.3769 N   0  0  0  0  0  0  0  0  0  0  0  0
    3.9102    9.2008   20.3124 C   0  0  0  0  0  0  0  0  0  0  0  0
   12.7292   10.9960   18.4597 C   0  0  0  0  0  0  0  0  0  0  0  0
    9.3798    6.6793   23.6625 C   0  0  0  0  0  0  0  0  0  0  0  0
   14.7425   10.0739   19.0802 O   0  0  0  0  0  0  0  0  0  0  0  0
    5.1894    9.4673   20.7118 C   0  0  0  0  0  0  0  0  0  0  0  0
    7.3773    8.8224   21.4870 C   0  0  0  0  0  0  0  0  0  0  0  0
    8.4391    6.6439   21.0235 C   0  0  0  0  0  0  0  0  0  0  0  0
    9.6494   11.1353   20.4167 C   0  0  0  0  0  0  0  0  0  0  0  0
    8.1431    7.6829   21.9046 C   0  0  0  0  0  0  0  0  0  0  0  0
    7.7796   10.1314   21.5115 N   0  0  0  0  0  0  0  0  0  0  0  0
    9.2768    5.6183   21.4437 C   0  0  0  0  0  0  0  0  0  0  0  0
    8.6315    7.7322   23.1768 C   0  0  0  0  0  0  0  0  0  0  0  0
   13.0537    9.9821   20.5781 C   0  0  0  0  0  0  0  0  0  0  0  0
   10.3850    4.6575   23.2386 O   0  0  0  0  0  0  0  0  0  0  0  0
    4.2069    6.8450   20.7994 C   0  0  0  0  0  0  0  0  0  0  0  0
    3.0726   10.1043   19.8522 O   0  0  0  0  0  0  0  0  0  0  0  0
    5.5057    7.1196   21.1155 C   0  0  0  0  0  0  0  0  0  0  0  0
    7.0367   11.0229   21.9948 O   0  0  0  0  0  0  0  0  0  0  0  0
  1  8  4  0
  1 12  4  0
  2  9  1  0
  2 11  4  0
  2 25  4  0
  3 12  4  0
  3 14  1  0
  3 23  4  0
  4 13  4  0
  4 21  4  0
  4 24  1  0
  5  8  4  0
  5 23  4  0
  6 18  2  0
  7 15  4  0
  7 16  1  0
  7 27  4  0
  8 18  1  0
 10 18  1  0
 10 20  1  0
 11 15  4  0
 11 26  1  0
 13 22  4  0
 16 19  1  0
 16 20  2  0
 17 19  4  0
 17 21  4  0
 19 22  4  0
 20 28  1  0
 25 27  4  0
M  END
$$$$

 Created by Python create_sdf_string function

 28 30  0  0  0  0  0  0  0  0999 V2000
   11.4592   11.2893   18.7941 C   0  0  0  0  0  0  0  0  0  0  0  0
    3.4202    7.9009   20.3866 C   0  0  0  0  0  0  0  0  0  0  0  0
   13.5280   10.3522   19.3586 C   0  0  0  0  0  0  0  0  0  0  0  0
    9.6923    5.6468   22.7891 C   0  0  0  0  0  0  0  0  0  0  0  0
   11.7756   10.2554   20.8841 N   0  0  0  0  0  0  0  0  0  0  0  0
    8.9876   11.9370   19.8757 O   0  0  0  0  0  0  0  0  0  0  0  0
    6.0167    8.4478   21.1089 C   0  0  0  0  0  0  0  0  0  0  0  0
   11.0002   10.8890   20.0262 C   0  0  0  0  0  0  0  0  0  0  0  0
    2.1721    7.7393   20.0315 O   0  0  0  0  0  0  0  0  0  0  0  0
    9.1107   10.3880   21.3769 N   0  0  0  0  0  0  0  0  0  0  0  0
    3.9102    9.2008   20.3124 C   0  0  0  0  0  0  0  0  0  0  0  0
   12.7292   10.9960   18.4597 C   0  0  0  0  0  0  0  0  0  0  0  0
    9.3798    6.6793   23.6625 C   0  0  0  0  0  0  0  0  0  0  0  0
   14.7425   10.0739   19.0802 O   0  0  0  0  0  0  0  0  0  0  0  0
    5.1894    9.4673   20.7118 C   0  0  0  0  0  0  0  0  0  0  0  0
    7.3773    8.8224   21.4870 C   0  0  0  0  0  0  0  0  0  0  0  0
    8.4391    6.6439   21.0235 C   0  0  0  0  0  0  0  0  0  0  0  0
    9.6494   11.1353   20.4167 C   0  0  0  0  0  0  0  0  0  0  0  0
    8.1431    7.6829   21.9046 C   0  0  0  0  0  0  0  0  0  0  0  0
    7.7796   10.1314   21.5115 N   0  0  0  0  0  0  0  0  0  0  0  0
    9.2768    5.6183   21.4437 C   0  0  0  0  0  0  0  0  0  0  0  0
    8.6315    7.7322   23.1768 C   0  0  0  0  0  0  0  0  0  0  0  0
   13.0537    9.9821   20.5781 C   0  0  0  0  0  0  0  0  0  0  0  0
   10.3850    4.6575   23.2386 O   0  0  0  0  0  0  0  0  0  0  0  0
    4.2069    6.8450   20.7994 C   0  0  0  0  0  0  0  0  0  0  0  0
    3.0726   10.1043   19.8522 O   0  0  0  0  0  0  0  0  0  0  0  0
    5.5057    7.1196   21.1155 C   0  0  0  0  0  0  0  0  0  0  0  0
    7.0367   11.0229   21.9948 O   0  0  0  0  0  0  0  0  0  0  0  0
  1  8  4  0
  1 12  4  0
  2  9  1  0
  2 11  4  0
  2 25  4  0
  3 12  4  0
  3 14  1  0
  3 23  4  0
  4 13  4  0
  4 21  4  0
  4 24  1  0
  5  8  4  0
  5 23  4  0
  6 18  2  0
  7 15  4  0
  7 16  1  0
  7 27  4  0
  8 18  1  0
 10 18  1  0
 10 20  1  0
 11 15  4  0
 11 26  1  0
 13 22  4  0
 16 19  1  0
 16 20  2  0
 17 19  4  0
 17 21  4  0
 19 22  4  0
 20 28  1  0
 25 27  4  0
M  END
$$$$

 Created by Python create_sdf_string function

 28 30  0  0  0  0  0  0  0  0999 V2000
   11.4592   11.2893   18.7941 C   0  0  0  0  0  0  0  0  0  0  0  0
    3.4202    7.9009   20.3866 C   0  0  0  0  0  0  0  0  0  0  0  0
   13.5280   10.3522   19.3586 C   0  0  0  0  0  0  0  0  0  0  0  0
    9.6923    5.6468   22.7891 C   0  0  0  0  0  0  0  0  0  0  0  0
   11.7756   10.2554   20.8841 N   0  0  0  0  0  0  0  0  0  0  0  0
    8.9876   11.9370   19.8757 O   0  0  0  0  0  0  0  0  0  0  0  0
    6.0167    8.4478   21.1089 C   0  0  0  0  0  0  0  0  0  0  0  0
   11.0002   10.8890   20.0262 C   0  0  0  0  0  0  0  0  0  0  0  0
    2.1721    7.7393   20.0315 O   0  0  0  0  0  0  0  0  0  0  0  0
    9.1107   10.3880   21.3769 N   0  0  0  0  0  0  0  0  0  0  0  0
    3.9102    9.2008   20.3124 C   0  0  0  0  0  0  0  0  0  0  0  0
   12.7292   10.9960   18.4597 C   0  0  0  0  0  0  0  0  0  0  0  0
    9.3798    6.6793   23.6625 C   0  0  0  0  0  0  0  0  0  0  0  0
   14.7425   10.0739   19.0802 O   0  0  0  0  0  0  0  0  0  0  0  0
    5.1894    9.4673   20.7118 C   0  0  0  0  0  0  0  0  0  0  0  0
    7.3773    8.8224   21.4870 C   0  0  0  0  0  0  0  0  0  0  0  0
    8.4391    6.6439   21.0235 C   0  0  0  0  0  0  0  0  0  0  0  0
    9.6494   11.1353   20.4167 C   0  0  0  0  0  0  0  0  0  0  0  0
    8.1431    7.6829   21.9046 C   0  0  0  0  0  0  0  0  0  0  0  0
    7.7796   10.1314   21.5115 N   0  0  0  0  0  0  0  0  0  0  0  0
    9.2768    5.6183   21.4437 C   0  0  0  0  0  0  0  0  0  0  0  0
    8.6315    7.7322   23.1768 C   0  0  0  0  0  0  0  0  0  0  0  0
   13.0537    9.9821   20.5781 C   0  0  0  0  0  0  0  0  0  0  0  0
   10.3850    4.6575   23.2386 O   0  0  0  0  0  0  0  0  0  0  0  0
    4.2069    6.8450   20.7994 C   0  0  0  0  0  0  0  0  0  0  0  0
    3.0726   10.1043   19.8522 O   0  0  0  0  0  0  0  0  0  0  0  0
    5.5057    7.1196   21.1155 C   0  0  0  0  0  0  0  0  0  0  0  0
    7.0367   11.0229   21.9948 O   0  0  0  0  0  0  0  0  0  0  0  0
  1  8  4  0
  1 12  4  0
  2  9  1  0
  2 11  4  0
  2 25  4  0
  3 12  4  0
  3 14  1  0
  3 23  4  0
  4 13  4  0
  4 21  4  0
  4 24  1  0
  5  8  4  0
  5 23  4  0
  6 18  2  0
  7 15  4  0
  7 16  1  0
  7 27  4  0
  8 18  1  0
 10 18  1  0
 10 20  1  0
 11 15  4  0
 11 26  1  0
 13 22  4  0
 16 19  1  0
 16 20  2  0
 17 19  4  0
 17 21  4  0
 19 22  4  0
 20 28  1  0
 25 27  4  0
M  END
$$$$

 Created by Python create_sdf_string function

 28 30  0  0  0  0  0  0  0  0999 V2000
   11.4592   11.2893   18.7941 C   0  0  0  0  0  0  0  0  0  0  0  0
    3.4202    7.9009   20.3866 C   0  0  0  0  0  0  0  0  0  0  0  0
   13.5280   10.3522   19.3586 C   0  0  0  0  0  0  0  0  0  0  0  0
    9.6923    5.6468   22.7891 C   0  0  0  0  0  0  0  0  0  0  0  0
   11.7756   10.2554   20.8841 N   0  0  0  0  0  0  0  0  0  0  0  0
    8.9876   11.9370   19.8757 O   0  0  0  0  0  0  0  0  0  0  0  0
    6.0167    8.4478   21.1089 C   0  0  0  0  0  0  0  0  0  0  0  0
   11.0002   10.8890   20.0262 C   0  0  0  0  0  0  0  0  0  0  0  0
    2.1721    7.7393   20.0315 O   0  0  0  0  0  0  0  0  0  0  0  0
    9.1107   10.3880   21.3769 N   0  0  0  0  0  0  0  0  0  0  0  0
    3.9102    9.2008   20.3124 C   0  0  0  0  0  0  0  0  0  0  0  0
   12.7292   10.9960   18.4597 C   0  0  0  0  0  0  0  0  0  0  0  0
    9.3798    6.6793   23.6625 C   0  0  0  0  0  0  0  0  0  0  0  0
   14.7425   10.0739   19.0802 O   0  0  0  0  0  0  0  0  0  0  0  0
    5.1894    9.4673   20.7118 C   0  0  0  0  0  0  0  0  0  0  0  0
    7.3773    8.8224   21.4870 C   0  0  0  0  0  0  0  0  0  0  0  0
    8.4391    6.6439   21.0235 C   0  0  0  0  0  0  0  0  0  0  0  0
    9.6494   11.1353   20.4167 C   0  0  0  0  0  0  0  0  0  0  0  0
    8.1431    7.6829   21.9046 C   0  0  0  0  0  0  0  0  0  0  0  0
    7.7796   10.1314   21.5115 N   0  0  0  0  0  0  0  0  0  0  0  0
    9.2768    5.6183   21.4437 C   0  0  0  0  0  0  0  0  0  0  0  0
    8.6315    7.7322   23.1768 C   0  0  0  0  0  0  0  0  0  0  0  0
   13.0537    9.9821   20.5781 C   0  0  0  0  0  0  0  0  0  0  0  0
   10.3850    4.6575   23.2386 O   0  0  0  0  0  0  0  0  0  0  0  0
    4.2069    6.8450   20.7994 C   0  0  0  0  0  0  0  0  0  0  0  0
    3.0726   10.1043   19.8522 O   0  0  0  0  0  0  0  0  0  0  0  0
    5.5057    7.1196   21.1155 C   0  0  0  0  0  0  0  0  0  0  0  0
    7.0367   11.0229   21.9948 O   0  0  0  0  0  0  0  0  0  0  0  0
  1  8  4  0
  1 12  4  0
  2  9  1  0
  2 11  4  0
  2 25  4  0
  3 12  4  0
  3 14  1  0
  3 23  4  0
  4 13  4  0
  4 21  4  0
  4 24  1  0
  5  8  4  0
  5 23  4  0
  6 18  2  0
  7 15  4  0
  7 16  1  0
  7 27  4  0
  8 18  1  0
 10 18  1  0
 10 20  1  0
 11 15  4  0
 11 26  1  0
 13 22  4  0
 16 19  1  0
 16 20  2  0
 17 19  4  0
 17 21  4  0
 19 22  4  0
 20 28  1  0
 25 27  4  0
M  END
$$$$

 Created by Python create_sdf_string function

 28 30  0  0  0  0  0  0  0  0999 V2000
   11.4592   11.2893   18.7941 C   0  0  0  0  0  0  0  0  0  0  0  0
    3.4202    7.9009   20.3866 C   0  0  0  0  0  0  0  0  0  0  0  0
   13.5280   10.3522   19.3586 C   0  0  0  0  0  0  0  0  0  0  0  0
    9.6923    5.6468   22.7891 C   0  0  0  0  0  0  0  0  0  0  0  0
   11.7756   10.2554   20.8841 N   0  0  0  0  0  0  0  0  0  0  0  0
    8.9876   11.9370   19.8757 O   0  0  0  0  0  0  0  0  0  0  0  0
    6.0167    8.4478   21.1089 C   0  0  0  0  0  0  0  0  0  0  0  0
   11.0002   10.8890   20.0262 C   0  0  0  0  0  0  0  0  0  0  0  0
    2.1721    7.7393   20.0315 O   0  0  0  0  0  0  0  0  0  0  0  0
    9.1107   10.3880   21.3769 N   0  0  0  0  0  0  0  0  0  0  0  0
    3.9102    9.2008   20.3124 C   0  0  0  0  0  0  0  0  0  0  0  0
   12.7292   10.9960   18.4597 C   0  0  0  0  0  0  0  0  0  0  0  0
    9.3798    6.6793   23.6625 C   0  0  0  0  0  0  0  0  0  0  0  0
   14.7425   10.0739   19.0802 O   0  0  0  0  0  0  0  0  0  0  0  0
    5.1894    9.4673   20.7118 C   0  0  0  0  0  0  0  0  0  0  0  0
    7.3773    8.8224   21.4870 C   0  0  0  0  0  0  0  0  0  0  0  0
    8.4391    6.6439   21.0235 C   0  0  0  0  0  0  0  0  0  0  0  0
    9.6494   11.1353   20.4167 C   0  0  0  0  0  0  0  0  0  0  0  0
    8.1431    7.6829   21.9046 C   0  0  0  0  0  0  0  0  0  0  0  0
    7.7796   10.1314   21.5115 N   0  0  0  0  0  0  0  0  0  0  0  0
    9.2768    5.6183   21.4437 C   0  0  0  0  0  0  0  0  0  0  0  0
    8.6315    7.7322   23.1768 C   0  0  0  0  0  0  0  0  0  0  0  0
   13.0537    9.9821   20.5781 C   0  0  0  0  0  0  0  0  0  0  0  0
   10.3850    4.6575   23.2386 O   0  0  0  0  0  0  0  0  0  0  0  0
    4.2069    6.8450   20.7994 C   0  0  0  0  0  0  0  0  0  0  0  0
    3.0726   10.1043   19.8522 O   0  0  0  0  0  0  0  0  0  0  0  0
    5.5057    7.1196   21.1155 C   0  0  0  0  0  0  0  0  0  0  0  0
    7.0367   11.0229   21.9948 O   0  0  0  0  0  0  0  0  0  0  0  0
  1  8  4  0
  1 12  4  0
  2  9  1  0
  2 11  4  0
  2 25  4  0
  3 12  4  0
  3 14  1  0
  3 23  4  0
  4 13  4  0
  4 21  4  0
  4 24  1  0
  5  8  4  0
  5 23  4  0
  6 18  2  0
  7 15  4  0
  7 16  1  0
  7 27  4  0
  8 18  1  0
 10 18  1  0
 10 20  1  0
 11 15  4  0
 11 26  1  0
 13 22  4  0
 16 19  1  0
 16 20  2  0
 17 19  4  0
 17 21  4  0
 19 22  4  0
 20 28  1  0
 25 27  4  0
M  END
$$$$

 Created by Python create_sdf_string function

 28 30  0  0  0  0  0  0  0  0999 V2000
   11.4592   11.2893   18.7941 C   0  0  0  0  0  0  0  0  0  0  0  0
    3.4202    7.9009   20.3866 C   0  0  0  0  0  0  0  0  0  0  0  0
   13.5280   10.3522   19.3586 C   0  0  0  0  0  0  0  0  0  0  0  0
    9.6923    5.6468   22.7891 C   0  0  0  0  0  0  0  0  0  0  0  0
   11.7756   10.2554   20.8841 N   0  0  0  0  0  0  0  0  0  0  0  0
    8.9876   11.9370   19.8757 O   0  0  0  0  0  0  0  0  0  0  0  0
    6.0167    8.4478   21.1089 C   0  0  0  0  0  0  0  0  0  0  0  0
   11.0002   10.8890   20.0262 C   0  0  0  0  0  0  0  0  0  0  0  0
    2.1721    7.7393   20.0315 O   0  0  0  0  0  0  0  0  0  0  0  0
    9.1107   10.3880   21.3769 N   0  0  0  0  0  0  0  0  0  0  0  0
    3.9102    9.2008   20.3124 C   0  0  0  0  0  0  0  0  0  0  0  0
   12.7292   10.9960   18.4597 C   0  0  0  0  0  0  0  0  0  0  0  0
    9.3798    6.6793   23.6625 C   0  0  0  0  0  0  0  0  0  0  0  0
   14.7425   10.0739   19.0802 O   0  0  0  0  0  0  0  0  0  0  0  0
    5.1894    9.4673   20.7118 C   0  0  0  0  0  0  0  0  0  0  0  0
    7.3773    8.8224   21.4870 C   0  0  0  0  0  0  0  0  0  0  0  0
    8.4391    6.6439   21.0235 C   0  0  0  0  0  0  0  0  0  0  0  0
    9.6494   11.1353   20.4167 C   0  0  0  0  0  0  0  0  0  0  0  0
    8.1431    7.6829   21.9046 C   0  0  0  0  0  0  0  0  0  0  0  0
    7.7796   10.1314   21.5115 N   0  0  0  0  0  0  0  0  0  0  0  0
    9.2768    5.6183   21.4437 C   0  0  0  0  0  0  0  0  0  0  0  0
    8.6315    7.7322   23.1768 C   0  0  0  0  0  0  0  0  0  0  0  0
   13.0537    9.9821   20.5781 C   0  0  0  0  0  0  0  0  0  0  0  0
   10.3850    4.6575   23.2386 O   0  0  0  0  0  0  0  0  0  0  0  0
    4.2069    6.8450   20.7994 C   0  0  0  0  0  0  0  0  0  0  0  0
    3.0726   10.1043   19.8522 O   0  0  0  0  0  0  0  0  0  0  0  0
    5.5057    7.1196   21.1155 C   0  0  0  0  0  0  0  0  0  0  0  0
    7.0367   11.0229   21.9948 O   0  0  0  0  0  0  0  0  0  0  0  0
  1  8  4  0
  1 12  4  0
  2  9  1  0
  2 11  4  0
  2 25  4  0
  3 12  4  0
  3 14  1  0
  3 23  4  0
  4 13  4  0
  4 21  4  0
  4 24  1  0
  5  8  4  0
  5 23  4  0
  6 18  2  0
  7 15  4  0
  7 16  1  0
  7 27  4  0
  8 18  1  0
 10 18  1  0
 10 20  1  0
 11 15  4  0
 11 26  1  0
 13 22  4  0
 16 19  1  0
 16 20  2  0
 17 19  4  0
 17 21  4  0
 19 22  4  0
 20 28  1  0
 25 27  4  0
M  END
$$$$

 Created by Python create_sdf_string function

 28 30  0  0  0  0  0  0  0  0999 V2000
   11.4592   11.2893   18.7941 C   0  0  0  0  0  0  0  0  0  0  0  0
    3.4202    7.9009   20.3866 C   0  0  0  0  0  0  0  0  0  0  0  0
   13.5280   10.3522   19.3586 C   0  0  0  0  0  0  0  0  0  0  0  0
    9.6923    5.6468   22.7891 C   0  0  0  0  0  0  0  0  0  0  0  0
   11.7756   10.2554   20.8841 N   0  0  0  0  0  0  0  0  0  0  0  0
    8.9876   11.9370   19.8757 O   0  0  0  0  0  0  0  0  0  0  0  0
    6.0167    8.4478   21.1089 C   0  0  0  0  0  0  0  0  0  0  0  0
   11.0002   10.8890   20.0262 C   0  0  0  0  0  0  0  0  0  0  0  0
    2.1721    7.7393   20.0315 O   0  0  0  0  0  0  0  0  0  0  0  0
    9.1107   10.3880   21.3769 N   0  0  0  0  0  0  0  0  0  0  0  0
    3.9102    9.2008   20.3124 C   0  0  0  0  0  0  0  0  0  0  0  0
   12.7292   10.9960   18.4597 C   0  0  0  0  0  0  0  0  0  0  0  0
    9.3798    6.6793   23.6625 C   0  0  0  0  0  0  0  0  0  0  0  0
   14.7425   10.0739   19.0802 O   0  0  0  0  0  0  0  0  0  0  0  0
    5.1894    9.4673   20.7118 C   0  0  0  0  0  0  0  0  0  0  0  0
    7.3773    8.8224   21.4870 C   0  0  0  0  0  0  0  0  0  0  0  0
    8.4391    6.6439   21.0235 C   0  0  0  0  0  0  0  0  0  0  0  0
    9.6494   11.1353   20.4167 C   0  0  0  0  0  0  0  0  0  0  0  0
    8.1431    7.6829   21.9046 C   0  0  0  0  0  0  0  0  0  0  0  0
    7.7796   10.1314   21.5115 N   0  0  0  0  0  0  0  0  0  0  0  0
    9.2768    5.6183   21.4437 C   0  0  0  0  0  0  0  0  0  0  0  0
    8.6315    7.7322   23.1768 C   0  0  0  0  0  0  0  0  0  0  0  0
   13.0537    9.9821   20.5781 C   0  0  0  0  0  0  0  0  0  0  0  0
   10.3850    4.6575   23.2386 O   0  0  0  0  0  0  0  0  0  0  0  0
    4.2069    6.8450   20.7994 C   0  0  0  0  0  0  0  0  0  0  0  0
    3.0726   10.1043   19.8522 O   0  0  0  0  0  0  0  0  0  0  0  0
    5.5057    7.1196   21.1155 C   0  0  0  0  0  0  0  0  0  0  0  0
    7.0367   11.0229   21.9948 O   0  0  0  0  0  0  0  0  0  0  0  0
  1  8  4  0
  1 12  4  0
  2  9  1  0
  2 11  4  0
  2 25  4  0
  3 12  4  0
  3 14  1  0
  3 23  4  0
  4 13  4  0
  4 21  4  0
  4 24  1  0
  5  8  4  0
  5 23  4  0
  6 18  2  0
  7 15  4  0
  7 16  1  0
  7 27  4  0
  8 18  1  0
 10 18  1  0
 10 20  1  0
 11 15  4  0
 11 26  1  0
 13 22  4  0
 16 19  1  0
 16 20  2  0
 17 19  4  0
 17 21  4  0
 19 22  4  0
 20 28  1  0
 25 27  4  0
M  END
$$$$

 Created by Python create_sdf_string function

 28 30  0  0  0  0  0  0  0  0999 V2000
   11.4592   11.2893   18.7941 C   0  0  0  0  0  0  0  0  0  0  0  0
    3.4202    7.9009   20.3866 C   0  0  0  0  0  0  0  0  0  0  0  0
   13.5280   10.3522   19.3586 C   0  0  0  0  0  0  0  0  0  0  0  0
    9.6923    5.6468   22.7891 C   0  0  0  0  0  0  0  0  0  0  0  0
   11.7756   10.2554   20.8841 N   0  0  0  0  0  0  0  0  0  0  0  0
    8.9876   11.9370   19.8757 O   0  0  0  0  0  0  0  0  0  0  0  0
    6.0167    8.4478   21.1089 C   0  0  0  0  0  0  0  0  0  0  0  0
   11.0002   10.8890   20.0262 C   0  0  0  0  0  0  0  0  0  0  0  0
    2.1721    7.7393   20.0315 O   0  0  0  0  0  0  0  0  0  0  0  0
    9.1107   10.3880   21.3769 N   0  0  0  0  0  0  0  0  0  0  0  0
    3.9102    9.2008   20.3124 C   0  0  0  0  0  0  0  0  0  0  0  0
   12.7292   10.9960   18.4597 C   0  0  0  0  0  0  0  0  0  0  0  0
    9.3798    6.6793   23.6625 C   0  0  0  0  0  0  0  0  0  0  0  0
   14.7425   10.0739   19.0802 O   0  0  0  0  0  0  0  0  0  0  0  0
    5.1894    9.4673   20.7118 C   0  0  0  0  0  0  0  0  0  0  0  0
    7.3773    8.8224   21.4870 C   0  0  0  0  0  0  0  0  0  0  0  0
    8.4391    6.6439   21.0235 C   0  0  0  0  0  0  0  0  0  0  0  0
    9.6494   11.1353   20.4167 C   0  0  0  0  0  0  0  0  0  0  0  0
    8.1431    7.6829   21.9046 C   0  0  0  0  0  0  0  0  0  0  0  0
    7.7796   10.1314   21.5115 N   0  0  0  0  0  0  0  0  0  0  0  0
    9.2768    5.6183   21.4437 C   0  0  0  0  0  0  0  0  0  0  0  0
    8.6315    7.7322   23.1768 C   0  0  0  0  0  0  0  0  0  0  0  0
   13.0537    9.9821   20.5781 C   0  0  0  0  0  0  0  0  0  0  0  0
   10.3850    4.6575   23.2386 O   0  0  0  0  0  0  0  0  0  0  0  0
    4.2069    6.8450   20.7994 C   0  0  0  0  0  0  0  0  0  0  0  0
    3.0726   10.1043   19.8522 O   0  0  0  0  0  0  0  0  0  0  0  0
    5.5057    7.1196   21.1155 C   0  0  0  0  0  0  0  0  0  0  0  0
    7.0367   11.0229   21.9948 O   0  0  0  0  0  0  0  0  0  0  0  0
  1  8  4  0
  1 12  4  0
  2  9  1  0
  2 11  4  0
  2 25  4  0
  3 12  4  0
  3 14  1  0
  3 23  4  0
  4 13  4  0
  4 21  4  0
  4 24  1  0
  5  8  4  0
  5 23  4  0
  6 18  2  0
  7 15  4  0
  7 16  1  0
  7 27  4  0
  8 18  1  0
 10 18  1  0
 10 20  1  0
 11 15  4  0
 11 26  1  0
 13 22  4  0
 16 19  1  0
 16 20  2  0
 17 19  4  0
 17 21  4  0
 19 22  4  0
 20 28  1  0
 25 27  4  0
M  END
$$$$

 Created by Python create_sdf_string function

 28 30  0  0  0  0  0  0  0  0999 V2000
   11.4592   11.2893   18.7941 C   0  0  0  0  0  0  0  0  0  0  0  0
    3.4202    7.9009   20.3866 C   0  0  0  0  0  0  0  0  0  0  0  0
   13.5280   10.3522   19.3586 C   0  0  0  0  0  0  0  0  0  0  0  0
    9.6923    5.6468   22.7891 C   0  0  0  0  0  0  0  0  0  0  0  0
   11.7756   10.2554   20.8841 N   0  0  0  0  0  0  0  0  0  0  0  0
    8.9876   11.9370   19.8757 O   0  0  0  0  0  0  0  0  0  0  0  0
    6.0167    8.4478   21.1089 C   0  0  0  0  0  0  0  0  0  0  0  0
   11.0002   10.8890   20.0262 C   0  0  0  0  0  0  0  0  0  0  0  0
    2.1721    7.7393   20.0315 O   0  0  0  0  0  0  0  0  0  0  0  0
    9.1107   10.3880   21.3769 N   0  0  0  0  0  0  0  0  0  0  0  0
    3.9102    9.2008   20.3124 C   0  0  0  0  0  0  0  0  0  0  0  0
   12.7292   10.9960   18.4597 C   0  0  0  0  0  0  0  0  0  0  0  0
    9.3798    6.6793   23.6625 C   0  0  0  0  0  0  0  0  0  0  0  0
   14.7425   10.0739   19.0802 O   0  0  0  0  0  0  0  0  0  0  0  0
    5.1894    9.4673   20.7118 C   0  0  0  0  0  0  0  0  0  0  0  0
    7.3773    8.8224   21.4870 C   0  0  0  0  0  0  0  0  0  0  0  0
    8.4391    6.6439   21.0235 C   0  0  0  0  0  0  0  0  0  0  0  0
    9.6494   11.1353   20.4167 C   0  0  0  0  0  0  0  0  0  0  0  0
    8.1431    7.6829   21.9046 C   0  0  0  0  0  0  0  0  0  0  0  0
    7.7796   10.1314   21.5115 N   0  0  0  0  0  0  0  0  0  0  0  0
    9.2768    5.6183   21.4437 C   0  0  0  0  0  0  0  0  0  0  0  0
    8.6315    7.7322   23.1768 C   0  0  0  0  0  0  0  0  0  0  0  0
   13.0537    9.9821   20.5781 C   0  0  0  0  0  0  0  0  0  0  0  0
   10.3850    4.6575   23.2386 O   0  0  0  0  0  0  0  0  0  0  0  0
    4.2069    6.8450   20.7994 C   0  0  0  0  0  0  0  0  0  0  0  0
    3.0726   10.1043   19.8522 O   0  0  0  0  0  0  0  0  0  0  0  0
    5.5057    7.1196   21.1155 C   0  0  0  0  0  0  0  0  0  0  0  0
    7.0367   11.0229   21.9948 O   0  0  0  0  0  0  0  0  0  0  0  0
  1  8  4  0
  1 12  4  0
  2  9  1  0
  2 11  4  0
  2 25  4  0
  3 12  4  0
  3 14  1  0
  3 23  4  0
  4 13  4  0
  4 21  4  0
  4 24  1  0
  5  8  4  0
  5 23  4  0
  6 18  2  0
  7 15  4  0
  7 16  1  0
  7 27  4  0
  8 18  1  0
 10 18  1  0
 10 20  1  0
 11 15  4  0
 11 26  1  0
 13 22  4  0
 16 19  1  0
 16 20  2  0
 17 19  4  0
 17 21  4  0
 19 22  4  0
 20 28  1  0
 25 27  4  0
M  END
$$$$

 Created by Python create_sdf_string function

 28 30  0  0  0  0  0  0  0  0999 V2000
   11.4592   11.2893   18.7941 C   0  0  0  0  0  0  0  0  0  0  0  0
    3.4202    7.9009   20.3866 C   0  0  0  0  0  0  0  0  0  0  0  0
   13.5280   10.3522   19.3586 C   0  0  0  0  0  0  0  0  0  0  0  0
    9.6923    5.6468   22.7891 C   0  0  0  0  0  0  0  0  0  0  0  0
   11.7756   10.2554   20.8841 N   0  0  0  0  0  0  0  0  0  0  0  0
    8.9876   11.9370   19.8757 O   0  0  0  0  0  0  0  0  0  0  0  0
    6.0167    8.4478   21.1089 C   0  0  0  0  0  0  0  0  0  0  0  0
   11.0002   10.8890   20.0262 C   0  0  0  0  0  0  0  0  0  0  0  0
    2.1721    7.7393   20.0315 O   0  0  0  0  0  0  0  0  0  0  0  0
    9.1107   10.3880   21.3769 N   0  0  0  0  0  0  0  0  0  0  0  0
    3.9102    9.2008   20.3124 C   0  0  0  0  0  0  0  0  0  0  0  0
   12.7292   10.9960   18.4597 C   0  0  0  0  0  0  0  0  0  0  0  0
    9.3798    6.6793   23.6625 C   0  0  0  0  0  0  0  0  0  0  0  0
   14.7425   10.0739   19.0802 O   0  0  0  0  0  0  0  0  0  0  0  0
    5.1894    9.4673   20.7118 C   0  0  0  0  0  0  0  0  0  0  0  0
    7.3773    8.8224   21.4870 C   0  0  0  0  0  0  0  0  0  0  0  0
    8.4391    6.6439   21.0235 C   0  0  0  0  0  0  0  0  0  0  0  0
    9.6494   11.1353   20.4167 C   0  0  0  0  0  0  0  0  0  0  0  0
    8.1431    7.6829   21.9046 C   0  0  0  0  0  0  0  0  0  0  0  0
    7.7796   10.1314   21.5115 N   0  0  0  0  0  0  0  0  0  0  0  0
    9.2768    5.6183   21.4437 C   0  0  0  0  0  0  0  0  0  0  0  0
    8.6315    7.7322   23.1768 C   0  0  0  0  0  0  0  0  0  0  0  0
   13.0537    9.9821   20.5781 C   0  0  0  0  0  0  0  0  0  0  0  0
   10.3850    4.6575   23.2386 O   0  0  0  0  0  0  0  0  0  0  0  0
    4.2069    6.8450   20.7994 C   0  0  0  0  0  0  0  0  0  0  0  0
    3.0726   10.1043   19.8522 O   0  0  0  0  0  0  0  0  0  0  0  0
    5.5057    7.1196   21.1155 C   0  0  0  0  0  0  0  0  0  0  0  0
    7.0367   11.0229   21.9948 O   0  0  0  0  0  0  0  0  0  0  0  0
  1  8  4  0
  1 12  4  0
  2  9  1  0
  2 11  4  0
  2 25  4  0
  3 12  4  0
  3 14  1  0
  3 23  4  0
  4 13  4  0
  4 21  4  0
  4 24  1  0
  5  8  4  0
  5 23  4  0
  6 18  2  0
  7 15  4  0
  7 16  1  0
  7 27  4  0
  8 18  1  0
 10 18  1  0
 10 20  1  0
 11 15  4  0
 11 26  1  0
 13 22  4  0
 16 19  1  0
 16 20  2  0
 17 19  4  0
 17 21  4  0
 19 22  4  0
 20 28  1  0
 25 27  4  0
M  END
$$$$

 Created by Python create_sdf_string function

 28 30  0  0  0  0  0  0  0  0999 V2000
   11.4592   11.2893   18.7941 C   0  0  0  0  0  0  0  0  0  0  0  0
    3.4202    7.9009   20.3866 C   0  0  0  0  0  0  0  0  0  0  0  0
   13.5280   10.3522   19.3586 C   0  0  0  0  0  0  0  0  0  0  0  0
    9.6923    5.6468   22.7891 C   0  0  0  0  0  0  0  0  0  0  0  0
   11.7756   10.2554   20.8841 N   0  0  0  0  0  0  0  0  0  0  0  0
    8.9876   11.9370   19.8757 O   0  0  0  0  0  0  0  0  0  0  0  0
    6.0167    8.4478   21.1089 C   0  0  0  0  0  0  0  0  0  0  0  0
   11.0002   10.8890   20.0262 C   0  0  0  0  0  0  0  0  0  0  0  0
    2.1721    7.7393   20.0315 O   0  0  0  0  0  0  0  0  0  0  0  0
    9.1107   10.3880   21.3769 N   0  0  0  0  0  0  0  0  0  0  0  0
    3.9102    9.2008   20.3124 C   0  0  0  0  0  0  0  0  0  0  0  0
   12.7292   10.9960   18.4597 C   0  0  0  0  0  0  0  0  0  0  0  0
    9.3798    6.6793   23.6625 C   0  0  0  0  0  0  0  0  0  0  0  0
   14.7425   10.0739   19.0802 O   0  0  0  0  0  0  0  0  0  0  0  0
    5.1894    9.4673   20.7118 C   0  0  0  0  0  0  0  0  0  0  0  0
    7.3773    8.8224   21.4870 C   0  0  0  0  0  0  0  0  0  0  0  0
    8.4391    6.6439   21.0235 C   0  0  0  0  0  0  0  0  0  0  0  0
    9.6494   11.1353   20.4167 C   0  0  0  0  0  0  0  0  0  0  0  0
    8.1431    7.6829   21.9046 C   0  0  0  0  0  0  0  0  0  0  0  0
    7.7796   10.1314   21.5115 N   0  0  0  0  0  0  0  0  0  0  0  0
    9.2768    5.6183   21.4437 C   0  0  0  0  0  0  0  0  0  0  0  0
    8.6315    7.7322   23.1768 C   0  0  0  0  0  0  0  0  0  0  0  0
   13.0537    9.9821   20.5781 C   0  0  0  0  0  0  0  0  0  0  0  0
   10.3850    4.6575   23.2386 O   0  0  0  0  0  0  0  0  0  0  0  0
    4.2069    6.8450   20.7994 C   0  0  0  0  0  0  0  0  0  0  0  0
    3.0726   10.1043   19.8522 O   0  0  0  0  0  0  0  0  0  0  0  0
    5.5057    7.1196   21.1155 C   0  0  0  0  0  0  0  0  0  0  0  0
    7.0367   11.0229   21.9948 O   0  0  0  0  0  0  0  0  0  0  0  0
  1  8  4  0
  1 12  4  0
  2  9  1  0
  2 11  4  0
  2 25  4  0
  3 12  4  0
  3 14  1  0
  3 23  4  0
  4 13  4  0
  4 21  4  0
  4 24  1  0
  5  8  4  0
  5 23  4  0
  6 18  2  0
  7 15  4  0
  7 16  1  0
  7 27  4  0
  8 18  1  0
 10 18  1  0
 10 20  1  0
 11 15  4  0
 11 26  1  0
 13 22  4  0
 16 19  1  0
 16 20  2  0
 17 19  4  0
 17 21  4  0
 19 22  4  0
 20 28  1  0
 25 27  4  0
M  END
$$$$

 Created by Python create_sdf_string function

 28 30  0  0  0  0  0  0  0  0999 V2000
   11.4592   11.2893   18.7941 C   0  0  0  0  0  0  0  0  0  0  0  0
    3.4202    7.9009   20.3866 C   0  0  0  0  0  0  0  0  0  0  0  0
   13.5280   10.3522   19.3586 C   0  0  0  0  0  0  0  0  0  0  0  0
    9.6923    5.6468   22.7891 C   0  0  0  0  0  0  0  0  0  0  0  0
   11.7756   10.2554   20.8841 N   0  0  0  0  0  0  0  0  0  0  0  0
    8.9876   11.9370   19.8757 O   0  0  0  0  0  0  0  0  0  0  0  0
    6.0167    8.4478   21.1089 C   0  0  0  0  0  0  0  0  0  0  0  0
   11.0002   10.8890   20.0262 C   0  0  0  0  0  0  0  0  0  0  0  0
    2.1721    7.7393   20.0315 O   0  0  0  0  0  0  0  0  0  0  0  0
    9.1107   10.3880   21.3769 N   0  0  0  0  0  0  0  0  0  0  0  0
    3.9102    9.2008   20.3124 C   0  0  0  0  0  0  0  0  0  0  0  0
   12.7292   10.9960   18.4597 C   0  0  0  0  0  0  0  0  0  0  0  0
    9.3798    6.6793   23.6625 C   0  0  0  0  0  0  0  0  0  0  0  0
   14.7425   10.0739   19.0802 O   0  0  0  0  0  0  0  0  0  0  0  0
    5.1894    9.4673   20.7118 C   0  0  0  0  0  0  0  0  0  0  0  0
    7.3773    8.8224   21.4870 C   0  0  0  0  0  0  0  0  0  0  0  0
    8.4391    6.6439   21.0235 C   0  0  0  0  0  0  0  0  0  0  0  0
    9.6494   11.1353   20.4167 C   0  0  0  0  0  0  0  0  0  0  0  0
    8.1431    7.6829   21.9046 C   0  0  0  0  0  0  0  0  0  0  0  0
    7.7796   10.1314   21.5115 N   0  0  0  0  0  0  0  0  0  0  0  0
    9.2768    5.6183   21.4437 C   0  0  0  0  0  0  0  0  0  0  0  0
    8.6315    7.7322   23.1768 C   0  0  0  0  0  0  0  0  0  0  0  0
   13.0537    9.9821   20.5781 C   0  0  0  0  0  0  0  0  0  0  0  0
   10.3850    4.6575   23.2386 O   0  0  0  0  0  0  0  0  0  0  0  0
    4.2069    6.8450   20.7994 C   0  0  0  0  0  0  0  0  0  0  0  0
    3.0726   10.1043   19.8522 O   0  0  0  0  0  0  0  0  0  0  0  0
    5.5057    7.1196   21.1155 C   0  0  0  0  0  0  0  0  0  0  0  0
    7.0367   11.0229   21.9948 O   0  0  0  0  0  0  0  0  0  0  0  0
  1  8  4  0
  1 12  4  0
  2  9  1  0
  2 11  4  0
  2 25  4  0
  3 12  4  0
  3 14  1  0
  3 23  4  0
  4 13  4  0
  4 21  4  0
  4 24  1  0
  5  8  4  0
  5 23  4  0
  6 18  2  0
  7 15  4  0
  7 16  1  0
  7 27  4  0
  8 18  1  0
 10 18  1  0
 10 20  1  0
 11 15  4  0
 11 26  1  0
 13 22  4  0
 16 19  1  0
 16 20  2  0
 17 19  4  0
 17 21  4  0
 19 22  4  0
 20 28  1  0
 25 27  4  0
M  END
$$$$

 Created by Python create_sdf_string function

 28 30  0  0  0  0  0  0  0  0999 V2000
   11.4592   11.2893   18.7941 C   0  0  0  0  0  0  0  0  0  0  0  0
    3.4202    7.9009   20.3866 C   0  0  0  0  0  0  0  0  0  0  0  0
   13.5280   10.3522   19.3586 C   0  0  0  0  0  0  0  0  0  0  0  0
    9.6923    5.6468   22.7891 C   0  0  0  0  0  0  0  0  0  0  0  0
   11.7756   10.2554   20.8841 N   0  0  0  0  0  0  0  0  0  0  0  0
    8.9876   11.9370   19.8757 O   0  0  0  0  0  0  0  0  0  0  0  0
    6.0167    8.4478   21.1089 C   0  0  0  0  0  0  0  0  0  0  0  0
   11.0002   10.8890   20.0262 C   0  0  0  0  0  0  0  0  0  0  0  0
    2.1721    7.7393   20.0315 O   0  0  0  0  0  0  0  0  0  0  0  0
    9.1107   10.3880   21.3769 N   0  0  0  0  0  0  0  0  0  0  0  0
    3.9102    9.2008   20.3124 C   0  0  0  0  0  0  0  0  0  0  0  0
   12.7292   10.9960   18.4597 C   0  0  0  0  0  0  0  0  0  0  0  0
    9.3798    6.6793   23.6625 C   0  0  0  0  0  0  0  0  0  0  0  0
   14.7425   10.0739   19.0802 O   0  0  0  0  0  0  0  0  0  0  0  0
    5.1894    9.4673   20.7118 C   0  0  0  0  0  0  0  0  0  0  0  0
    7.3773    8.8224   21.4870 C   0  0  0  0  0  0  0  0  0  0  0  0
    8.4391    6.6439   21.0235 C   0  0  0  0  0  0  0  0  0  0  0  0
    9.6494   11.1353   20.4167 C   0  0  0  0  0  0  0  0  0  0  0  0
    8.1431    7.6829   21.9046 C   0  0  0  0  0  0  0  0  0  0  0  0
    7.7796   10.1314   21.5115 N   0  0  0  0  0  0  0  0  0  0  0  0
    9.2768    5.6183   21.4437 C   0  0  0  0  0  0  0  0  0  0  0  0
    8.6315    7.7322   23.1768 C   0  0  0  0  0  0  0  0  0  0  0  0
   13.0537    9.9821   20.5781 C   0  0  0  0  0  0  0  0  0  0  0  0
   10.3850    4.6575   23.2386 O   0  0  0  0  0  0  0  0  0  0  0  0
    4.2069    6.8450   20.7994 C   0  0  0  0  0  0  0  0  0  0  0  0
    3.0726   10.1043   19.8522 O   0  0  0  0  0  0  0  0  0  0  0  0
    5.5057    7.1196   21.1155 C   0  0  0  0  0  0  0  0  0  0  0  0
    7.0367   11.0229   21.9948 O   0  0  0  0  0  0  0  0  0  0  0  0
  1  8  4  0
  1 12  4  0
  2  9  1  0
  2 11  4  0
  2 25  4  0
  3 12  4  0
  3 14  1  0
  3 23  4  0
  4 13  4  0
  4 21  4  0
  4 24  1  0
  5  8  4  0
  5 23  4  0
  6 18  2  0
  7 15  4  0
  7 16  1  0
  7 27  4  0
  8 18  1  0
 10 18  1  0
 10 20  1  0
 11 15  4  0
 11 26  1  0
 13 22  4  0
 16 19  1  0
 16 20  2  0
 17 19  4  0
 17 21  4  0
 19 22  4  0
 20 28  1  0
 25 27  4  0
M  END
$$$$

 Created by Python create_sdf_string function

 28 30  0  0  0  0  0  0  0  0999 V2000
   11.4592   11.2893   18.7941 C   0  0  0  0  0  0  0  0  0  0  0  0
    3.4202    7.9009   20.3866 C   0  0  0  0  0  0  0  0  0  0  0  0
   13.5280   10.3522   19.3586 C   0  0  0  0  0  0  0  0  0  0  0  0
    9.6923    5.6468   22.7891 C   0  0  0  0  0  0  0  0  0  0  0  0
   11.7756   10.2554   20.8841 N   0  0  0  0  0  0  0  0  0  0  0  0
    8.9876   11.9370   19.8757 O   0  0  0  0  0  0  0  0  0  0  0  0
    6.0167    8.4478   21.1089 C   0  0  0  0  0  0  0  0  0  0  0  0
   11.0002   10.8890   20.0262 C   0  0  0  0  0  0  0  0  0  0  0  0
    2.1721    7.7393   20.0315 O   0  0  0  0  0  0  0  0  0  0  0  0
    9.1107   10.3880   21.3769 N   0  0  0  0  0  0  0  0  0  0  0  0
    3.9102    9.2008   20.3124 C   0  0  0  0  0  0  0  0  0  0  0  0
   12.7292   10.9960   18.4597 C   0  0  0  0  0  0  0  0  0  0  0  0
    9.3798    6.6793   23.6625 C   0  0  0  0  0  0  0  0  0  0  0  0
   14.7425   10.0739   19.0802 O   0  0  0  0  0  0  0  0  0  0  0  0
    5.1894    9.4673   20.7118 C   0  0  0  0  0  0  0  0  0  0  0  0
    7.3773    8.8224   21.4870 C   0  0  0  0  0  0  0  0  0  0  0  0
    8.4391    6.6439   21.0235 C   0  0  0  0  0  0  0  0  0  0  0  0
    9.6494   11.1353   20.4167 C   0  0  0  0  0  0  0  0  0  0  0  0
    8.1431    7.6829   21.9046 C   0  0  0  0  0  0  0  0  0  0  0  0
    7.7796   10.1314   21.5115 N   0  0  0  0  0  0  0  0  0  0  0  0
    9.2768    5.6183   21.4437 C   0  0  0  0  0  0  0  0  0  0  0  0
    8.6315    7.7322   23.1768 C   0  0  0  0  0  0  0  0  0  0  0  0
   13.0537    9.9821   20.5781 C   0  0  0  0  0  0  0  0  0  0  0  0
   10.3850    4.6575   23.2386 O   0  0  0  0  0  0  0  0  0  0  0  0
    4.2069    6.8450   20.7994 C   0  0  0  0  0  0  0  0  0  0  0  0
    3.0726   10.1043   19.8522 O   0  0  0  0  0  0  0  0  0  0  0  0
    5.5057    7.1196   21.1155 C   0  0  0  0  0  0  0  0  0  0  0  0
    7.0367   11.0229   21.9948 O   0  0  0  0  0  0  0  0  0  0  0  0
  1  8  4  0
  1 12  4  0
  2  9  1  0
  2 11  4  0
  2 25  4  0
  3 12  4  0
  3 14  1  0
  3 23  4  0
  4 13  4  0
  4 21  4  0
  4 24  1  0
  5  8  4  0
  5 23  4  0
  6 18  2  0
  7 15  4  0
  7 16  1  0
  7 27  4  0
  8 18  1  0
 10 18  1  0
 10 20  1  0
 11 15  4  0
 11 26  1  0
 13 22  4  0
 16 19  1  0
 16 20  2  0
 17 19  4  0
 17 21  4  0
 19 22  4  0
 20 28  1  0
 25 27  4  0
M  END
$$$$

 Created by Python create_sdf_string function

 28 30  0  0  0  0  0  0  0  0999 V2000
   11.4592   11.2893   18.7941 C   0  0  0  0  0  0  0  0  0  0  0  0
    3.4202    7.9009   20.3866 C   0  0  0  0  0  0  0  0  0  0  0  0
   13.5280   10.3522   19.3586 C   0  0  0  0  0  0  0  0  0  0  0  0
    9.6923    5.6468   22.7891 C   0  0  0  0  0  0  0  0  0  0  0  0
   11.7756   10.2554   20.8841 N   0  0  0  0  0  0  0  0  0  0  0  0
    8.9876   11.9370   19.8757 O   0  0  0  0  0  0  0  0  0  0  0  0
    6.0167    8.4478   21.1089 C   0  0  0  0  0  0  0  0  0  0  0  0
   11.0002   10.8890   20.0262 C   0  0  0  0  0  0  0  0  0  0  0  0
    2.1721    7.7393   20.0315 O   0  0  0  0  0  0  0  0  0  0  0  0
    9.1107   10.3880   21.3769 N   0  0  0  0  0  0  0  0  0  0  0  0
    3.9102    9.2008   20.3124 C   0  0  0  0  0  0  0  0  0  0  0  0
   12.7292   10.9960   18.4597 C   0  0  0  0  0  0  0  0  0  0  0  0
    9.3798    6.6793   23.6625 C   0  0  0  0  0  0  0  0  0  0  0  0
   14.7425   10.0739   19.0802 O   0  0  0  0  0  0  0  0  0  0  0  0
    5.1894    9.4673   20.7118 C   0  0  0  0  0  0  0  0  0  0  0  0
    7.3773    8.8224   21.4870 C   0  0  0  0  0  0  0  0  0  0  0  0
    8.4391    6.6439   21.0235 C   0  0  0  0  0  0  0  0  0  0  0  0
    9.6494   11.1353   20.4167 C   0  0  0  0  0  0  0  0  0  0  0  0
    8.1431    7.6829   21.9046 C   0  0  0  0  0  0  0  0  0  0  0  0
    7.7796   10.1314   21.5115 N   0  0  0  0  0  0  0  0  0  0  0  0
    9.2768    5.6183   21.4437 C   0  0  0  0  0  0  0  0  0  0  0  0
    8.6315    7.7322   23.1768 C   0  0  0  0  0  0  0  0  0  0  0  0
   13.0537    9.9821   20.5781 C   0  0  0  0  0  0  0  0  0  0  0  0
   10.3850    4.6575   23.2386 O   0  0  0  0  0  0  0  0  0  0  0  0
    4.2069    6.8450   20.7994 C   0  0  0  0  0  0  0  0  0  0  0  0
    3.0726   10.1043   19.8522 O   0  0  0  0  0  0  0  0  0  0  0  0
    5.5057    7.1196   21.1155 C   0  0  0  0  0  0  0  0  0  0  0  0
    7.0367   11.0229   21.9948 O   0  0  0  0  0  0  0  0  0  0  0  0
  1  8  4  0
  1 12  4  0
  2  9  1  0
  2 11  4  0
  2 25  4  0
  3 12  4  0
  3 14  1  0
  3 23  4  0
  4 13  4  0
  4 21  4  0
  4 24  1  0
  5  8  4  0
  5 23  4  0
  6 18  2  0
  7 15  4  0
  7 16  1  0
  7 27  4  0
  8 18  1  0
 10 18  1  0
 10 20  1  0
 11 15  4  0
 11 26  1  0
 13 22  4  0
 16 19  1  0
 16 20  2  0
 17 19  4  0
 17 21  4  0
 19 22  4  0
 20 28  1  0
 25 27  4  0
M  END
$$$$

 Created by Python create_sdf_string function

 28 30  0  0  0  0  0  0  0  0999 V2000
   11.4592   11.2893   18.7941 C   0  0  0  0  0  0  0  0  0  0  0  0
    3.4202    7.9009   20.3866 C   0  0  0  0  0  0  0  0  0  0  0  0
   13.5280   10.3522   19.3586 C   0  0  0  0  0  0  0  0  0  0  0  0
    9.6923    5.6468   22.7891 C   0  0  0  0  0  0  0  0  0  0  0  0
   11.7756   10.2554   20.8841 N   0  0  0  0  0  0  0  0  0  0  0  0
    8.9876   11.9370   19.8757 O   0  0  0  0  0  0  0  0  0  0  0  0
    6.0167    8.4478   21.1089 C   0  0  0  0  0  0  0  0  0  0  0  0
   11.0002   10.8890   20.0262 C   0  0  0  0  0  0  0  0  0  0  0  0
    2.1721    7.7393   20.0315 O   0  0  0  0  0  0  0  0  0  0  0  0
    9.1107   10.3880   21.3769 N   0  0  0  0  0  0  0  0  0  0  0  0
    3.9102    9.2008   20.3124 C   0  0  0  0  0  0  0  0  0  0  0  0
   12.7292   10.9960   18.4597 C   0  0  0  0  0  0  0  0  0  0  0  0
    9.3798    6.6793   23.6625 C   0  0  0  0  0  0  0  0  0  0  0  0
   14.7425   10.0739   19.0802 O   0  0  0  0  0  0  0  0  0  0  0  0
    5.1894    9.4673   20.7118 C   0  0  0  0  0  0  0  0  0  0  0  0
    7.3773    8.8224   21.4870 C   0  0  0  0  0  0  0  0  0  0  0  0
    8.4391    6.6439   21.0235 C   0  0  0  0  0  0  0  0  0  0  0  0
    9.6494   11.1353   20.4167 C   0  0  0  0  0  0  0  0  0  0  0  0
    8.1431    7.6829   21.9046 C   0  0  0  0  0  0  0  0  0  0  0  0
    7.7796   10.1314   21.5115 N   0  0  0  0  0  0  0  0  0  0  0  0
    9.2768    5.6183   21.4437 C   0  0  0  0  0  0  0  0  0  0  0  0
    8.6315    7.7322   23.1768 C   0  0  0  0  0  0  0  0  0  0  0  0
   13.0537    9.9821   20.5781 C   0  0  0  0  0  0  0  0  0  0  0  0
   10.3850    4.6575   23.2386 O   0  0  0  0  0  0  0  0  0  0  0  0
    4.2069    6.8450   20.7994 C   0  0  0  0  0  0  0  0  0  0  0  0
    3.0726   10.1043   19.8522 O   0  0  0  0  0  0  0  0  0  0  0  0
    5.5057    7.1196   21.1155 C   0  0  0  0  0  0  0  0  0  0  0  0
    7.0367   11.0229   21.9948 O   0  0  0  0  0  0  0  0  0  0  0  0
  1  8  4  0
  1 12  4  0
  2  9  1  0
  2 11  4  0
  2 25  4  0
  3 12  4  0
  3 14  1  0
  3 23  4  0
  4 13  4  0
  4 21  4  0
  4 24  1  0
  5  8  4  0
  5 23  4  0
  6 18  2  0
  7 15  4  0
  7 16  1  0
  7 27  4  0
  8 18  1  0
 10 18  1  0
 10 20  1  0
 11 15  4  0
 11 26  1  0
 13 22  4  0
 16 19  1  0
 16 20  2  0
 17 19  4  0
 17 21  4  0
 19 22  4  0
 20 28  1  0
 25 27  4  0
M  END
$$$$

 Created by Python create_sdf_string function

 28 30  0  0  0  0  0  0  0  0999 V2000
   11.4592   11.2893   18.7941 C   0  0  0  0  0  0  0  0  0  0  0  0
    3.4202    7.9009   20.3866 C   0  0  0  0  0  0  0  0  0  0  0  0
   13.5280   10.3522   19.3586 C   0  0  0  0  0  0  0  0  0  0  0  0
    9.6923    5.6468   22.7891 C   0  0  0  0  0  0  0  0  0  0  0  0
   11.7756   10.2554   20.8841 N   0  0  0  0  0  0  0  0  0  0  0  0
    8.9876   11.9370   19.8757 O   0  0  0  0  0  0  0  0  0  0  0  0
    6.0167    8.4478   21.1089 C   0  0  0  0  0  0  0  0  0  0  0  0
   11.0002   10.8890   20.0262 C   0  0  0  0  0  0  0  0  0  0  0  0
    2.1721    7.7393   20.0315 O   0  0  0  0  0  0  0  0  0  0  0  0
    9.1107   10.3880   21.3769 N   0  0  0  0  0  0  0  0  0  0  0  0
    3.9102    9.2008   20.3124 C   0  0  0  0  0  0  0  0  0  0  0  0
   12.7292   10.9960   18.4597 C   0  0  0  0  0  0  0  0  0  0  0  0
    9.3798    6.6793   23.6625 C   0  0  0  0  0  0  0  0  0  0  0  0
   14.7425   10.0739   19.0802 O   0  0  0  0  0  0  0  0  0  0  0  0
    5.1894    9.4673   20.7118 C   0  0  0  0  0  0  0  0  0  0  0  0
    7.3773    8.8224   21.4870 C   0  0  0  0  0  0  0  0  0  0  0  0
    8.4391    6.6439   21.0235 C   0  0  0  0  0  0  0  0  0  0  0  0
    9.6494   11.1353   20.4167 C   0  0  0  0  0  0  0  0  0  0  0  0
    8.1431    7.6829   21.9046 C   0  0  0  0  0  0  0  0  0  0  0  0
    7.7796   10.1314   21.5115 N   0  0  0  0  0  0  0  0  0  0  0  0
    9.2768    5.6183   21.4437 C   0  0  0  0  0  0  0  0  0  0  0  0
    8.6315    7.7322   23.1768 C   0  0  0  0  0  0  0  0  0  0  0  0
   13.0537    9.9821   20.5781 C   0  0  0  0  0  0  0  0  0  0  0  0
   10.3850    4.6575   23.2386 O   0  0  0  0  0  0  0  0  0  0  0  0
    4.2069    6.8450   20.7994 C   0  0  0  0  0  0  0  0  0  0  0  0
    3.0726   10.1043   19.8522 O   0  0  0  0  0  0  0  0  0  0  0  0
    5.5057    7.1196   21.1155 C   0  0  0  0  0  0  0  0  0  0  0  0
    7.0367   11.0229   21.9948 O   0  0  0  0  0  0  0  0  0  0  0  0
  1  8  4  0
  1 12  4  0
  2  9  1  0
  2 11  4  0
  2 25  4  0
  3 12  4  0
  3 14  1  0
  3 23  4  0
  4 13  4  0
  4 21  4  0
  4 24  1  0
  5  8  4  0
  5 23  4  0
  6 18  2  0
  7 15  4  0
  7 16  1  0
  7 27  4  0
  8 18  1  0
 10 18  1  0
 10 20  1  0
 11 15  4  0
 11 26  1  0
 13 22  4  0
 16 19  1  0
 16 20  2  0
 17 19  4  0
 17 21  4  0
 19 22  4  0
 20 28  1  0
 25 27  4  0
M  END
$$$$

 Created by Python create_sdf_string function

 28 30  0  0  0  0  0  0  0  0999 V2000
   11.4592   11.2893   18.7941 C   0  0  0  0  0  0  0  0  0  0  0  0
    3.4202    7.9009   20.3866 C   0  0  0  0  0  0  0  0  0  0  0  0
   13.5280   10.3522   19.3586 C   0  0  0  0  0  0  0  0  0  0  0  0
    9.6923    5.6468   22.7891 C   0  0  0  0  0  0  0  0  0  0  0  0
   11.7756   10.2554   20.8841 N   0  0  0  0  0  0  0  0  0  0  0  0
    8.9876   11.9370   19.8757 O   0  0  0  0  0  0  0  0  0  0  0  0
    6.0167    8.4478   21.1089 C   0  0  0  0  0  0  0  0  0  0  0  0
   11.0002   10.8890   20.0262 C   0  0  0  0  0  0  0  0  0  0  0  0
    2.1721    7.7393   20.0315 O   0  0  0  0  0  0  0  0  0  0  0  0
    9.1107   10.3880   21.3769 N   0  0  0  0  0  0  0  0  0  0  0  0
    3.9102    9.2008   20.3124 C   0  0  0  0  0  0  0  0  0  0  0  0
   12.7292   10.9960   18.4597 C   0  0  0  0  0  0  0  0  0  0  0  0
    9.3798    6.6793   23.6625 C   0  0  0  0  0  0  0  0  0  0  0  0
   14.7425   10.0739   19.0802 O   0  0  0  0  0  0  0  0  0  0  0  0
    5.1894    9.4673   20.7118 C   0  0  0  0  0  0  0  0  0  0  0  0
    7.3773    8.8224   21.4870 C   0  0  0  0  0  0  0  0  0  0  0  0
    8.4391    6.6439   21.0235 C   0  0  0  0  0  0  0  0  0  0  0  0
    9.6494   11.1353   20.4167 C   0  0  0  0  0  0  0  0  0  0  0  0
    8.1431    7.6829   21.9046 C   0  0  0  0  0  0  0  0  0  0  0  0
    7.7796   10.1314   21.5115 N   0  0  0  0  0  0  0  0  0  0  0  0
    9.2768    5.6183   21.4437 C   0  0  0  0  0  0  0  0  0  0  0  0
    8.6315    7.7322   23.1768 C   0  0  0  0  0  0  0  0  0  0  0  0
   13.0537    9.9821   20.5781 C   0  0  0  0  0  0  0  0  0  0  0  0
   10.3850    4.6575   23.2386 O   0  0  0  0  0  0  0  0  0  0  0  0
    4.2069    6.8450   20.7994 C   0  0  0  0  0  0  0  0  0  0  0  0
    3.0726   10.1043   19.8522 O   0  0  0  0  0  0  0  0  0  0  0  0
    5.5057    7.1196   21.1155 C   0  0  0  0  0  0  0  0  0  0  0  0
    7.0367   11.0229   21.9948 O   0  0  0  0  0  0  0  0  0  0  0  0
  1  8  4  0
  1 12  4  0
  2  9  1  0
  2 11  4  0
  2 25  4  0
  3 12  4  0
  3 14  1  0
  3 23  4  0
  4 13  4  0
  4 21  4  0
  4 24  1  0
  5  8  4  0
  5 23  4  0
  6 18  2  0
  7 15  4  0
  7 16  1  0
  7 27  4  0
  8 18  1  0
 10 18  1  0
 10 20  1  0
 11 15  4  0
 11 26  1  0
 13 22  4  0
 16 19  1  0
 16 20  2  0
 17 19  4  0
 17 21  4  0
 19 22  4  0
 20 28  1  0
 25 27  4  0
M  END
$$$$

 Created by Python create_sdf_string function

 28 30  0  0  0  0  0  0  0  0999 V2000
   11.4592   11.2893   18.7941 C   0  0  0  0  0  0  0  0  0  0  0  0
    3.4202    7.9009   20.3866 C   0  0  0  0  0  0  0  0  0  0  0  0
   13.5280   10.3522   19.3586 C   0  0  0  0  0  0  0  0  0  0  0  0
    9.6923    5.6468   22.7891 C   0  0  0  0  0  0  0  0  0  0  0  0
   11.7756   10.2554   20.8841 N   0  0  0  0  0  0  0  0  0  0  0  0
    8.9876   11.9370   19.8757 O   0  0  0  0  0  0  0  0  0  0  0  0
    6.0167    8.4478   21.1089 C   0  0  0  0  0  0  0  0  0  0  0  0
   11.0002   10.8890   20.0262 C   0  0  0  0  0  0  0  0  0  0  0  0
    2.1721    7.7393   20.0315 O   0  0  0  0  0  0  0  0  0  0  0  0
    9.1107   10.3880   21.3769 N   0  0  0  0  0  0  0  0  0  0  0  0
    3.9102    9.2008   20.3124 C   0  0  0  0  0  0  0  0  0  0  0  0
   12.7292   10.9960   18.4597 C   0  0  0  0  0  0  0  0  0  0  0  0
    9.3798    6.6793   23.6625 C   0  0  0  0  0  0  0  0  0  0  0  0
   14.7425   10.0739   19.0802 O   0  0  0  0  0  0  0  0  0  0  0  0
    5.1894    9.4673   20.7118 C   0  0  0  0  0  0  0  0  0  0  0  0
    7.3773    8.8224   21.4870 C   0  0  0  0  0  0  0  0  0  0  0  0
    8.4391    6.6439   21.0235 C   0  0  0  0  0  0  0  0  0  0  0  0
    9.6494   11.1353   20.4167 C   0  0  0  0  0  0  0  0  0  0  0  0
    8.1431    7.6829   21.9046 C   0  0  0  0  0  0  0  0  0  0  0  0
    7.7796   10.1314   21.5115 N   0  0  0  0  0  0  0  0  0  0  0  0
    9.2768    5.6183   21.4437 C   0  0  0  0  0  0  0  0  0  0  0  0
    8.6315    7.7322   23.1768 C   0  0  0  0  0  0  0  0  0  0  0  0
   13.0537    9.9821   20.5781 C   0  0  0  0  0  0  0  0  0  0  0  0
   10.3850    4.6575   23.2386 O   0  0  0  0  0  0  0  0  0  0  0  0
    4.2069    6.8450   20.7994 C   0  0  0  0  0  0  0  0  0  0  0  0
    3.0726   10.1043   19.8522 O   0  0  0  0  0  0  0  0  0  0  0  0
    5.5057    7.1196   21.1155 C   0  0  0  0  0  0  0  0  0  0  0  0
    7.0367   11.0229   21.9948 O   0  0  0  0  0  0  0  0  0  0  0  0
  1  8  4  0
  1 12  4  0
  2  9  1  0
  2 11  4  0
  2 25  4  0
  3 12  4  0
  3 14  1  0
  3 23  4  0
  4 13  4  0
  4 21  4  0
  4 24  1  0
  5  8  4  0
  5 23  4  0
  6 18  2  0
  7 15  4  0
  7 16  1  0
  7 27  4  0
  8 18  1  0
 10 18  1  0
 10 20  1  0
 11 15  4  0
 11 26  1  0
 13 22  4  0
 16 19  1  0
 16 20  2  0
 17 19  4  0
 17 21  4  0
 19 22  4  0
 20 28  1  0
 25 27  4  0
M  END
$$$$

 Created by Python create_sdf_string function

 28 30  0  0  0  0  0  0  0  0999 V2000
   11.4592   11.2893   18.7941 C   0  0  0  0  0  0  0  0  0  0  0  0
    3.4202    7.9009   20.3866 C   0  0  0  0  0  0  0  0  0  0  0  0
   13.5280   10.3522   19.3586 C   0  0  0  0  0  0  0  0  0  0  0  0
    9.6923    5.6468   22.7891 C   0  0  0  0  0  0  0  0  0  0  0  0
   11.7756   10.2554   20.8841 N   0  0  0  0  0  0  0  0  0  0  0  0
    8.9876   11.9370   19.8757 O   0  0  0  0  0  0  0  0  0  0  0  0
    6.0167    8.4478   21.1089 C   0  0  0  0  0  0  0  0  0  0  0  0
   11.0002   10.8890   20.0262 C   0  0  0  0  0  0  0  0  0  0  0  0
    2.1721    7.7393   20.0315 O   0  0  0  0  0  0  0  0  0  0  0  0
    9.1107   10.3880   21.3769 N   0  0  0  0  0  0  0  0  0  0  0  0
    3.9102    9.2008   20.3124 C   0  0  0  0  0  0  0  0  0  0  0  0
   12.7292   10.9960   18.4597 C   0  0  0  0  0  0  0  0  0  0  0  0
    9.3798    6.6793   23.6625 C   0  0  0  0  0  0  0  0  0  0  0  0
   14.7425   10.0739   19.0802 O   0  0  0  0  0  0  0  0  0  0  0  0
    5.1894    9.4673   20.7118 C   0  0  0  0  0  0  0  0  0  0  0  0
    7.3773    8.8224   21.4870 C   0  0  0  0  0  0  0  0  0  0  0  0
    8.4391    6.6439   21.0235 C   0  0  0  0  0  0  0  0  0  0  0  0
    9.6494   11.1353   20.4167 C   0  0  0  0  0  0  0  0  0  0  0  0
    8.1431    7.6829   21.9046 C   0  0  0  0  0  0  0  0  0  0  0  0
    7.7796   10.1314   21.5115 N   0  0  0  0  0  0  0  0  0  0  0  0
    9.2768    5.6183   21.4437 C   0  0  0  0  0  0  0  0  0  0  0  0
    8.6315    7.7322   23.1768 C   0  0  0  0  0  0  0  0  0  0  0  0
   13.0537    9.9821   20.5781 C   0  0  0  0  0  0  0  0  0  0  0  0
   10.3850    4.6575   23.2386 O   0  0  0  0  0  0  0  0  0  0  0  0
    4.2069    6.8450   20.7994 C   0  0  0  0  0  0  0  0  0  0  0  0
    3.0726   10.1043   19.8522 O   0  0  0  0  0  0  0  0  0  0  0  0
    5.5057    7.1196   21.1155 C   0  0  0  0  0  0  0  0  0  0  0  0
    7.0367   11.0229   21.9948 O   0  0  0  0  0  0  0  0  0  0  0  0
  1  8  4  0
  1 12  4  0
  2  9  1  0
  2 11  4  0
  2 25  4  0
  3 12  4  0
  3 14  1  0
  3 23  4  0
  4 13  4  0
  4 21  4  0
  4 24  1  0
  5  8  4  0
  5 23  4  0
  6 18  2  0
  7 15  4  0
  7 16  1  0
  7 27  4  0
  8 18  1  0
 10 18  1  0
 10 20  1  0
 11 15  4  0
 11 26  1  0
 13 22  4  0
 16 19  1  0
 16 20  2  0
 17 19  4  0
 17 21  4  0
 19 22  4  0
 20 28  1  0
 25 27  4  0
M  END
$$$$

 Created by Python create_sdf_string function

 28 30  0  0  0  0  0  0  0  0999 V2000
   11.4592   11.2893   18.7941 C   0  0  0  0  0  0  0  0  0  0  0  0
    3.4202    7.9009   20.3866 C   0  0  0  0  0  0  0  0  0  0  0  0
   13.5280   10.3522   19.3586 C   0  0  0  0  0  0  0  0  0  0  0  0
    9.6923    5.6468   22.7891 C   0  0  0  0  0  0  0  0  0  0  0  0
   11.7756   10.2554   20.8841 N   0  0  0  0  0  0  0  0  0  0  0  0
    8.9876   11.9370   19.8757 O   0  0  0  0  0  0  0  0  0  0  0  0
    6.0167    8.4478   21.1089 C   0  0  0  0  0  0  0  0  0  0  0  0
   11.0002   10.8890   20.0262 C   0  0  0  0  0  0  0  0  0  0  0  0
    2.1721    7.7393   20.0315 O   0  0  0  0  0  0  0  0  0  0  0  0
    9.1107   10.3880   21.3769 N   0  0  0  0  0  0  0  0  0  0  0  0
    3.9102    9.2008   20.3124 C   0  0  0  0  0  0  0  0  0  0  0  0
   12.7292   10.9960   18.4597 C   0  0  0  0  0  0  0  0  0  0  0  0
    9.3798    6.6793   23.6625 C   0  0  0  0  0  0  0  0  0  0  0  0
   14.7425   10.0739   19.0802 O   0  0  0  0  0  0  0  0  0  0  0  0
    5.1894    9.4673   20.7118 C   0  0  0  0  0  0  0  0  0  0  0  0
    7.3773    8.8224   21.4870 C   0  0  0  0  0  0  0  0  0  0  0  0
    8.4391    6.6439   21.0235 C   0  0  0  0  0  0  0  0  0  0  0  0
    9.6494   11.1353   20.4167 C   0  0  0  0  0  0  0  0  0  0  0  0
    8.1431    7.6829   21.9046 C   0  0  0  0  0  0  0  0  0  0  0  0
    7.7796   10.1314   21.5115 N   0  0  0  0  0  0  0  0  0  0  0  0
    9.2768    5.6183   21.4437 C   0  0  0  0  0  0  0  0  0  0  0  0
    8.6315    7.7322   23.1768 C   0  0  0  0  0  0  0  0  0  0  0  0
   13.0537    9.9821   20.5781 C   0  0  0  0  0  0  0  0  0  0  0  0
   10.3850    4.6575   23.2386 O   0  0  0  0  0  0  0  0  0  0  0  0
    4.2069    6.8450   20.7994 C   0  0  0  0  0  0  0  0  0  0  0  0
    3.0726   10.1043   19.8522 O   0  0  0  0  0  0  0  0  0  0  0  0
    5.5057    7.1196   21.1155 C   0  0  0  0  0  0  0  0  0  0  0  0
    7.0367   11.0229   21.9948 O   0  0  0  0  0  0  0  0  0  0  0  0
  1  8  4  0
  1 12  4  0
  2  9  1  0
  2 11  4  0
  2 25  4  0
  3 12  4  0
  3 14  1  0
  3 23  4  0
  4 13  4  0
  4 21  4  0
  4 24  1  0
  5  8  4  0
  5 23  4  0
  6 18  2  0
  7 15  4  0
  7 16  1  0
  7 27  4  0
  8 18  1  0
 10 18  1  0
 10 20  1  0
 11 15  4  0
 11 26  1  0
 13 22  4  0
 16 19  1  0
 16 20  2  0
 17 19  4  0
 17 21  4  0
 19 22  4  0
 20 28  1  0
 25 27  4  0
M  END
$$$$

 Created by Python create_sdf_string function

 28 30  0  0  0  0  0  0  0  0999 V2000
   11.4592   11.2893   18.7941 C   0  0  0  0  0  0  0  0  0  0  0  0
    3.4202    7.9009   20.3866 C   0  0  0  0  0  0  0  0  0  0  0  0
   13.5280   10.3522   19.3586 C   0  0  0  0  0  0  0  0  0  0  0  0
    9.6923    5.6468   22.7891 C   0  0  0  0  0  0  0  0  0  0  0  0
   11.7756   10.2554   20.8841 N   0  0  0  0  0  0  0  0  0  0  0  0
    8.9876   11.9370   19.8757 O   0  0  0  0  0  0  0  0  0  0  0  0
    6.0167    8.4478   21.1089 C   0  0  0  0  0  0  0  0  0  0  0  0
   11.0002   10.8890   20.0262 C   0  0  0  0  0  0  0  0  0  0  0  0
    2.1721    7.7393   20.0315 O   0  0  0  0  0  0  0  0  0  0  0  0
    9.1107   10.3880   21.3769 N   0  0  0  0  0  0  0  0  0  0  0  0
    3.9102    9.2008   20.3124 C   0  0  0  0  0  0  0  0  0  0  0  0
   12.7292   10.9960   18.4597 C   0  0  0  0  0  0  0  0  0  0  0  0
    9.3798    6.6793   23.6625 C   0  0  0  0  0  0  0  0  0  0  0  0
   14.7425   10.0739   19.0802 O   0  0  0  0  0  0  0  0  0  0  0  0
    5.1894    9.4673   20.7118 C   0  0  0  0  0  0  0  0  0  0  0  0
    7.3773    8.8224   21.4870 C   0  0  0  0  0  0  0  0  0  0  0  0
    8.4391    6.6439   21.0235 C   0  0  0  0  0  0  0  0  0  0  0  0
    9.6494   11.1353   20.4167 C   0  0  0  0  0  0  0  0  0  0  0  0
    8.1431    7.6829   21.9046 C   0  0  0  0  0  0  0  0  0  0  0  0
    7.7796   10.1314   21.5115 N   0  0  0  0  0  0  0  0  0  0  0  0
    9.2768    5.6183   21.4437 C   0  0  0  0  0  0  0  0  0  0  0  0
    8.6315    7.7322   23.1768 C   0  0  0  0  0  0  0  0  0  0  0  0
   13.0537    9.9821   20.5781 C   0  0  0  0  0  0  0  0  0  0  0  0
   10.3850    4.6575   23.2386 O   0  0  0  0  0  0  0  0  0  0  0  0
    4.2069    6.8450   20.7994 C   0  0  0  0  0  0  0  0  0  0  0  0
    3.0726   10.1043   19.8522 O   0  0  0  0  0  0  0  0  0  0  0  0
    5.5057    7.1196   21.1155 C   0  0  0  0  0  0  0  0  0  0  0  0
    7.0367   11.0229   21.9948 O   0  0  0  0  0  0  0  0  0  0  0  0
  1  8  4  0
  1 12  4  0
  2  9  1  0
  2 11  4  0
  2 25  4  0
  3 12  4  0
  3 14  1  0
  3 23  4  0
  4 13  4  0
  4 21  4  0
  4 24  1  0
  5  8  4  0
  5 23  4  0
  6 18  2  0
  7 15  4  0
  7 16  1  0
  7 27  4  0
  8 18  1  0
 10 18  1  0
 10 20  1  0
 11 15  4  0
 11 26  1  0
 13 22  4  0
 16 19  1  0
 16 20  2  0
 17 19  4  0
 17 21  4  0
 19 22  4  0
 20 28  1  0
 25 27  4  0
M  END
$$$$

 Created by Python create_sdf_string function

 28 30  0  0  0  0  0  0  0  0999 V2000
   11.4592   11.2893   18.7941 C   0  0  0  0  0  0  0  0  0  0  0  0
    3.4202    7.9009   20.3866 C   0  0  0  0  0  0  0  0  0  0  0  0
   13.5280   10.3522   19.3586 C   0  0  0  0  0  0  0  0  0  0  0  0
    9.6923    5.6468   22.7891 C   0  0  0  0  0  0  0  0  0  0  0  0
   11.7756   10.2554   20.8841 N   0  0  0  0  0  0  0  0  0  0  0  0
    8.9876   11.9370   19.8757 O   0  0  0  0  0  0  0  0  0  0  0  0
    6.0167    8.4478   21.1089 C   0  0  0  0  0  0  0  0  0  0  0  0
   11.0002   10.8890   20.0262 C   0  0  0  0  0  0  0  0  0  0  0  0
    2.1721    7.7393   20.0315 O   0  0  0  0  0  0  0  0  0  0  0  0
    9.1107   10.3880   21.3769 N   0  0  0  0  0  0  0  0  0  0  0  0
    3.9102    9.2008   20.3124 C   0  0  0  0  0  0  0  0  0  0  0  0
   12.7292   10.9960   18.4597 C   0  0  0  0  0  0  0  0  0  0  0  0
    9.3798    6.6793   23.6625 C   0  0  0  0  0  0  0  0  0  0  0  0
   14.7425   10.0739   19.0802 O   0  0  0  0  0  0  0  0  0  0  0  0
    5.1894    9.4673   20.7118 C   0  0  0  0  0  0  0  0  0  0  0  0
    7.3773    8.8224   21.4870 C   0  0  0  0  0  0  0  0  0  0  0  0
    8.4391    6.6439   21.0235 C   0  0  0  0  0  0  0  0  0  0  0  0
    9.6494   11.1353   20.4167 C   0  0  0  0  0  0  0  0  0  0  0  0
    8.1431    7.6829   21.9046 C   0  0  0  0  0  0  0  0  0  0  0  0
    7.7796   10.1314   21.5115 N   0  0  0  0  0  0  0  0  0  0  0  0
    9.2768    5.6183   21.4437 C   0  0  0  0  0  0  0  0  0  0  0  0
    8.6315    7.7322   23.1768 C   0  0  0  0  0  0  0  0  0  0  0  0
   13.0537    9.9821   20.5781 C   0  0  0  0  0  0  0  0  0  0  0  0
   10.3850    4.6575   23.2386 O   0  0  0  0  0  0  0  0  0  0  0  0
    4.2069    6.8450   20.7994 C   0  0  0  0  0  0  0  0  0  0  0  0
    3.0726   10.1043   19.8522 O   0  0  0  0  0  0  0  0  0  0  0  0
    5.5057    7.1196   21.1155 C   0  0  0  0  0  0  0  0  0  0  0  0
    7.0367   11.0229   21.9948 O   0  0  0  0  0  0  0  0  0  0  0  0
  1  8  4  0
  1 12  4  0
  2  9  1  0
  2 11  4  0
  2 25  4  0
  3 12  4  0
  3 14  1  0
  3 23  4  0
  4 13  4  0
  4 21  4  0
  4 24  1  0
  5  8  4  0
  5 23  4  0
  6 18  2  0
  7 15  4  0
  7 16  1  0
  7 27  4  0
  8 18  1  0
 10 18  1  0
 10 20  1  0
 11 15  4  0
 11 26  1  0
 13 22  4  0
 16 19  1  0
 16 20  2  0
 17 19  4  0
 17 21  4  0
 19 22  4  0
 20 28  1  0
 25 27  4  0
M  END
$$$$

 Created by Python create_sdf_string function

 28 30  0  0  0  0  0  0  0  0999 V2000
   11.4592   11.2893   18.7941 C   0  0  0  0  0  0  0  0  0  0  0  0
    3.4202    7.9009   20.3866 C   0  0  0  0  0  0  0  0  0  0  0  0
   13.5280   10.3522   19.3586 C   0  0  0  0  0  0  0  0  0  0  0  0
    9.6923    5.6468   22.7891 C   0  0  0  0  0  0  0  0  0  0  0  0
   11.7756   10.2554   20.8841 N   0  0  0  0  0  0  0  0  0  0  0  0
    8.9876   11.9370   19.8757 O   0  0  0  0  0  0  0  0  0  0  0  0
    6.0167    8.4478   21.1089 C   0  0  0  0  0  0  0  0  0  0  0  0
   11.0002   10.8890   20.0262 C   0  0  0  0  0  0  0  0  0  0  0  0
    2.1721    7.7393   20.0315 O   0  0  0  0  0  0  0  0  0  0  0  0
    9.1107   10.3880   21.3769 N   0  0  0  0  0  0  0  0  0  0  0  0
    3.9102    9.2008   20.3124 C   0  0  0  0  0  0  0  0  0  0  0  0
   12.7292   10.9960   18.4597 C   0  0  0  0  0  0  0  0  0  0  0  0
    9.3798    6.6793   23.6625 C   0  0  0  0  0  0  0  0  0  0  0  0
   14.7425   10.0739   19.0802 O   0  0  0  0  0  0  0  0  0  0  0  0
    5.1894    9.4673   20.7118 C   0  0  0  0  0  0  0  0  0  0  0  0
    7.3773    8.8224   21.4870 C   0  0  0  0  0  0  0  0  0  0  0  0
    8.4391    6.6439   21.0235 C   0  0  0  0  0  0  0  0  0  0  0  0
    9.6494   11.1353   20.4167 C   0  0  0  0  0  0  0  0  0  0  0  0
    8.1431    7.6829   21.9046 C   0  0  0  0  0  0  0  0  0  0  0  0
    7.7796   10.1314   21.5115 N   0  0  0  0  0  0  0  0  0  0  0  0
    9.2768    5.6183   21.4437 C   0  0  0  0  0  0  0  0  0  0  0  0
    8.6315    7.7322   23.1768 C   0  0  0  0  0  0  0  0  0  0  0  0
   13.0537    9.9821   20.5781 C   0  0  0  0  0  0  0  0  0  0  0  0
   10.3850    4.6575   23.2386 O   0  0  0  0  0  0  0  0  0  0  0  0
    4.2069    6.8450   20.7994 C   0  0  0  0  0  0  0  0  0  0  0  0
    3.0726   10.1043   19.8522 O   0  0  0  0  0  0  0  0  0  0  0  0
    5.5057    7.1196   21.1155 C   0  0  0  0  0  0  0  0  0  0  0  0
    7.0367   11.0229   21.9948 O   0  0  0  0  0  0  0  0  0  0  0  0
  1  8  4  0
  1 12  4  0
  2  9  1  0
  2 11  4  0
  2 25  4  0
  3 12  4  0
  3 14  1  0
  3 23  4  0
  4 13  4  0
  4 21  4  0
  4 24  1  0
  5  8  4  0
  5 23  4  0
  6 18  2  0
  7 15  4  0
  7 16  1  0
  7 27  4  0
  8 18  1  0
 10 18  1  0
 10 20  1  0
 11 15  4  0
 11 26  1  0
 13 22  4  0
 16 19  1  0
 16 20  2  0
 17 19  4  0
 17 21  4  0
 19 22  4  0
 20 28  1  0
 25 27  4  0
M  END
$$$$

 Created by Python create_sdf_string function

 28 30  0  0  0  0  0  0  0  0999 V2000
   11.4592   11.2893   18.7941 C   0  0  0  0  0  0  0  0  0  0  0  0
    3.4202    7.9009   20.3866 C   0  0  0  0  0  0  0  0  0  0  0  0
   13.5280   10.3522   19.3586 C   0  0  0  0  0  0  0  0  0  0  0  0
    9.6923    5.6468   22.7891 C   0  0  0  0  0  0  0  0  0  0  0  0
   11.7756   10.2554   20.8841 N   0  0  0  0  0  0  0  0  0  0  0  0
    8.9876   11.9370   19.8757 O   0  0  0  0  0  0  0  0  0  0  0  0
    6.0167    8.4478   21.1089 C   0  0  0  0  0  0  0  0  0  0  0  0
   11.0002   10.8890   20.0262 C   0  0  0  0  0  0  0  0  0  0  0  0
    2.1721    7.7393   20.0315 O   0  0  0  0  0  0  0  0  0  0  0  0
    9.1107   10.3880   21.3769 N   0  0  0  0  0  0  0  0  0  0  0  0
    3.9102    9.2008   20.3124 C   0  0  0  0  0  0  0  0  0  0  0  0
   12.7292   10.9960   18.4597 C   0  0  0  0  0  0  0  0  0  0  0  0
    9.3798    6.6793   23.6625 C   0  0  0  0  0  0  0  0  0  0  0  0
   14.7425   10.0739   19.0802 O   0  0  0  0  0  0  0  0  0  0  0  0
    5.1894    9.4673   20.7118 C   0  0  0  0  0  0  0  0  0  0  0  0
    7.3773    8.8224   21.4870 C   0  0  0  0  0  0  0  0  0  0  0  0
    8.4391    6.6439   21.0235 C   0  0  0  0  0  0  0  0  0  0  0  0
    9.6494   11.1353   20.4167 C   0  0  0  0  0  0  0  0  0  0  0  0
    8.1431    7.6829   21.9046 C   0  0  0  0  0  0  0  0  0  0  0  0
    7.7796   10.1314   21.5115 N   0  0  0  0  0  0  0  0  0  0  0  0
    9.2768    5.6183   21.4437 C   0  0  0  0  0  0  0  0  0  0  0  0
    8.6315    7.7322   23.1768 C   0  0  0  0  0  0  0  0  0  0  0  0
   13.0537    9.9821   20.5781 C   0  0  0  0  0  0  0  0  0  0  0  0
   10.3850    4.6575   23.2386 O   0  0  0  0  0  0  0  0  0  0  0  0
    4.2069    6.8450   20.7994 C   0  0  0  0  0  0  0  0  0  0  0  0
    3.0726   10.1043   19.8522 O   0  0  0  0  0  0  0  0  0  0  0  0
    5.5057    7.1196   21.1155 C   0  0  0  0  0  0  0  0  0  0  0  0
    7.0367   11.0229   21.9948 O   0  0  0  0  0  0  0  0  0  0  0  0
  1  8  4  0
  1 12  4  0
  2  9  1  0
  2 11  4  0
  2 25  4  0
  3 12  4  0
  3 14  1  0
  3 23  4  0
  4 13  4  0
  4 21  4  0
  4 24  1  0
  5  8  4  0
  5 23  4  0
  6 18  2  0
  7 15  4  0
  7 16  1  0
  7 27  4  0
  8 18  1  0
 10 18  1  0
 10 20  1  0
 11 15  4  0
 11 26  1  0
 13 22  4  0
 16 19  1  0
 16 20  2  0
 17 19  4  0
 17 21  4  0
 19 22  4  0
 20 28  1  0
 25 27  4  0
M  END
$$$$

 Created by Python create_sdf_string function

 28 30  0  0  0  0  0  0  0  0999 V2000
   11.4592   11.2893   18.7941 C   0  0  0  0  0  0  0  0  0  0  0  0
    3.4202    7.9009   20.3866 C   0  0  0  0  0  0  0  0  0  0  0  0
   13.5280   10.3522   19.3586 C   0  0  0  0  0  0  0  0  0  0  0  0
    9.6923    5.6468   22.7891 C   0  0  0  0  0  0  0  0  0  0  0  0
   11.7756   10.2554   20.8841 N   0  0  0  0  0  0  0  0  0  0  0  0
    8.9876   11.9370   19.8757 O   0  0  0  0  0  0  0  0  0  0  0  0
    6.0167    8.4478   21.1089 C   0  0  0  0  0  0  0  0  0  0  0  0
   11.0002   10.8890   20.0262 C   0  0  0  0  0  0  0  0  0  0  0  0
    2.1721    7.7393   20.0315 O   0  0  0  0  0  0  0  0  0  0  0  0
    9.1107   10.3880   21.3769 N   0  0  0  0  0  0  0  0  0  0  0  0
    3.9102    9.2008   20.3124 C   0  0  0  0  0  0  0  0  0  0  0  0
   12.7292   10.9960   18.4597 C   0  0  0  0  0  0  0  0  0  0  0  0
    9.3798    6.6793   23.6625 C   0  0  0  0  0  0  0  0  0  0  0  0
   14.7425   10.0739   19.0802 O   0  0  0  0  0  0  0  0  0  0  0  0
    5.1894    9.4673   20.7118 C   0  0  0  0  0  0  0  0  0  0  0  0
    7.3773    8.8224   21.4870 C   0  0  0  0  0  0  0  0  0  0  0  0
    8.4391    6.6439   21.0235 C   0  0  0  0  0  0  0  0  0  0  0  0
    9.6494   11.1353   20.4167 C   0  0  0  0  0  0  0  0  0  0  0  0
    8.1431    7.6829   21.9046 C   0  0  0  0  0  0  0  0  0  0  0  0
    7.7796   10.1314   21.5115 N   0  0  0  0  0  0  0  0  0  0  0  0
    9.2768    5.6183   21.4437 C   0  0  0  0  0  0  0  0  0  0  0  0
    8.6315    7.7322   23.1768 C   0  0  0  0  0  0  0  0  0  0  0  0
   13.0537    9.9821   20.5781 C   0  0  0  0  0  0  0  0  0  0  0  0
   10.3850    4.6575   23.2386 O   0  0  0  0  0  0  0  0  0  0  0  0
    4.2069    6.8450   20.7994 C   0  0  0  0  0  0  0  0  0  0  0  0
    3.0726   10.1043   19.8522 O   0  0  0  0  0  0  0  0  0  0  0  0
    5.5057    7.1196   21.1155 C   0  0  0  0  0  0  0  0  0  0  0  0
    7.0367   11.0229   21.9948 O   0  0  0  0  0  0  0  0  0  0  0  0
  1  8  4  0
  1 12  4  0
  2  9  1  0
  2 11  4  0
  2 25  4  0
  3 12  4  0
  3 14  1  0
  3 23  4  0
  4 13  4  0
  4 21  4  0
  4 24  1  0
  5  8  4  0
  5 23  4  0
  6 18  2  0
  7 15  4  0
  7 16  1  0
  7 27  4  0
  8 18  1  0
 10 18  1  0
 10 20  1  0
 11 15  4  0
 11 26  1  0
 13 22  4  0
 16 19  1  0
 16 20  2  0
 17 19  4  0
 17 21  4  0
 19 22  4  0
 20 28  1  0
 25 27  4  0
M  END
$$$$

 Created by Python create_sdf_string function

 28 30  0  0  0  0  0  0  0  0999 V2000
   11.4592   11.2893   18.7941 C   0  0  0  0  0  0  0  0  0  0  0  0
    3.4202    7.9009   20.3866 C   0  0  0  0  0  0  0  0  0  0  0  0
   13.5280   10.3522   19.3586 C   0  0  0  0  0  0  0  0  0  0  0  0
    9.6923    5.6468   22.7891 C   0  0  0  0  0  0  0  0  0  0  0  0
   11.7756   10.2554   20.8841 N   0  0  0  0  0  0  0  0  0  0  0  0
    8.9876   11.9370   19.8757 O   0  0  0  0  0  0  0  0  0  0  0  0
    6.0167    8.4478   21.1089 C   0  0  0  0  0  0  0  0  0  0  0  0
   11.0002   10.8890   20.0262 C   0  0  0  0  0  0  0  0  0  0  0  0
    2.1721    7.7393   20.0315 O   0  0  0  0  0  0  0  0  0  0  0  0
    9.1107   10.3880   21.3769 N   0  0  0  0  0  0  0  0  0  0  0  0
    3.9102    9.2008   20.3124 C   0  0  0  0  0  0  0  0  0  0  0  0
   12.7292   10.9960   18.4597 C   0  0  0  0  0  0  0  0  0  0  0  0
    9.3798    6.6793   23.6625 C   0  0  0  0  0  0  0  0  0  0  0  0
   14.7425   10.0739   19.0802 O   0  0  0  0  0  0  0  0  0  0  0  0
    5.1894    9.4673   20.7118 C   0  0  0  0  0  0  0  0  0  0  0  0
    7.3773    8.8224   21.4870 C   0  0  0  0  0  0  0  0  0  0  0  0
    8.4391    6.6439   21.0235 C   0  0  0  0  0  0  0  0  0  0  0  0
    9.6494   11.1353   20.4167 C   0  0  0  0  0  0  0  0  0  0  0  0
    8.1431    7.6829   21.9046 C   0  0  0  0  0  0  0  0  0  0  0  0
    7.7796   10.1314   21.5115 N   0  0  0  0  0  0  0  0  0  0  0  0
    9.2768    5.6183   21.4437 C   0  0  0  0  0  0  0  0  0  0  0  0
    8.6315    7.7322   23.1768 C   0  0  0  0  0  0  0  0  0  0  0  0
   13.0537    9.9821   20.5781 C   0  0  0  0  0  0  0  0  0  0  0  0
   10.3850    4.6575   23.2386 O   0  0  0  0  0  0  0  0  0  0  0  0
    4.2069    6.8450   20.7994 C   0  0  0  0  0  0  0  0  0  0  0  0
    3.0726   10.1043   19.8522 O   0  0  0  0  0  0  0  0  0  0  0  0
    5.5057    7.1196   21.1155 C   0  0  0  0  0  0  0  0  0  0  0  0
    7.0367   11.0229   21.9948 O   0  0  0  0  0  0  0  0  0  0  0  0
  1  8  4  0
  1 12  4  0
  2  9  1  0
  2 11  4  0
  2 25  4  0
  3 12  4  0
  3 14  1  0
  3 23  4  0
  4 13  4  0
  4 21  4  0
  4 24  1  0
  5  8  4  0
  5 23  4  0
  6 18  2  0
  7 15  4  0
  7 16  1  0
  7 27  4  0
  8 18  1  0
 10 18  1  0
 10 20  1  0
 11 15  4  0
 11 26  1  0
 13 22  4  0
 16 19  1  0
 16 20  2  0
 17 19  4  0
 17 21  4  0
 19 22  4  0
 20 28  1  0
 25 27  4  0
M  END
$$$$

 Created by Python create_sdf_string function

 28 30  0  0  0  0  0  0  0  0999 V2000
   11.4592   11.2893   18.7941 C   0  0  0  0  0  0  0  0  0  0  0  0
    3.4202    7.9009   20.3866 C   0  0  0  0  0  0  0  0  0  0  0  0
   13.5280   10.3522   19.3586 C   0  0  0  0  0  0  0  0  0  0  0  0
    9.6923    5.6468   22.7891 C   0  0  0  0  0  0  0  0  0  0  0  0
   11.7756   10.2554   20.8841 N   0  0  0  0  0  0  0  0  0  0  0  0
    8.9876   11.9370   19.8757 O   0  0  0  0  0  0  0  0  0  0  0  0
    6.0167    8.4478   21.1089 C   0  0  0  0  0  0  0  0  0  0  0  0
   11.0002   10.8890   20.0262 C   0  0  0  0  0  0  0  0  0  0  0  0
    2.1721    7.7393   20.0315 O   0  0  0  0  0  0  0  0  0  0  0  0
    9.1107   10.3880   21.3769 N   0  0  0  0  0  0  0  0  0  0  0  0
    3.9102    9.2008   20.3124 C   0  0  0  0  0  0  0  0  0  0  0  0
   12.7292   10.9960   18.4597 C   0  0  0  0  0  0  0  0  0  0  0  0
    9.3798    6.6793   23.6625 C   0  0  0  0  0  0  0  0  0  0  0  0
   14.7425   10.0739   19.0802 O   0  0  0  0  0  0  0  0  0  0  0  0
    5.1894    9.4673   20.7118 C   0  0  0  0  0  0  0  0  0  0  0  0
    7.3773    8.8224   21.4870 C   0  0  0  0  0  0  0  0  0  0  0  0
    8.4391    6.6439   21.0235 C   0  0  0  0  0  0  0  0  0  0  0  0
    9.6494   11.1353   20.4167 C   0  0  0  0  0  0  0  0  0  0  0  0
    8.1431    7.6829   21.9046 C   0  0  0  0  0  0  0  0  0  0  0  0
    7.7796   10.1314   21.5115 N   0  0  0  0  0  0  0  0  0  0  0  0
    9.2768    5.6183   21.4437 C   0  0  0  0  0  0  0  0  0  0  0  0
    8.6315    7.7322   23.1768 C   0  0  0  0  0  0  0  0  0  0  0  0
   13.0537    9.9821   20.5781 C   0  0  0  0  0  0  0  0  0  0  0  0
   10.3850    4.6575   23.2386 O   0  0  0  0  0  0  0  0  0  0  0  0
    4.2069    6.8450   20.7994 C   0  0  0  0  0  0  0  0  0  0  0  0
    3.0726   10.1043   19.8522 O   0  0  0  0  0  0  0  0  0  0  0  0
    5.5057    7.1196   21.1155 C   0  0  0  0  0  0  0  0  0  0  0  0
    7.0367   11.0229   21.9948 O   0  0  0  0  0  0  0  0  0  0  0  0
  1  8  4  0
  1 12  4  0
  2  9  1  0
  2 11  4  0
  2 25  4  0
  3 12  4  0
  3 14  1  0
  3 23  4  0
  4 13  4  0
  4 21  4  0
  4 24  1  0
  5  8  4  0
  5 23  4  0
  6 18  2  0
  7 15  4  0
  7 16  1  0
  7 27  4  0
  8 18  1  0
 10 18  1  0
 10 20  1  0
 11 15  4  0
 11 26  1  0
 13 22  4  0
 16 19  1  0
 16 20  2  0
 17 19  4  0
 17 21  4  0
 19 22  4  0
 20 28  1  0
 25 27  4  0
M  END
$$$$

 Created by Python create_sdf_string function

 28 30  0  0  0  0  0  0  0  0999 V2000
   11.4592   11.2893   18.7941 C   0  0  0  0  0  0  0  0  0  0  0  0
    3.4202    7.9009   20.3866 C   0  0  0  0  0  0  0  0  0  0  0  0
   13.5280   10.3522   19.3586 C   0  0  0  0  0  0  0  0  0  0  0  0
    9.6923    5.6468   22.7891 C   0  0  0  0  0  0  0  0  0  0  0  0
   11.7756   10.2554   20.8841 N   0  0  0  0  0  0  0  0  0  0  0  0
    8.9876   11.9370   19.8757 O   0  0  0  0  0  0  0  0  0  0  0  0
    6.0167    8.4478   21.1089 C   0  0  0  0  0  0  0  0  0  0  0  0
   11.0002   10.8890   20.0262 C   0  0  0  0  0  0  0  0  0  0  0  0
    2.1721    7.7393   20.0315 O   0  0  0  0  0  0  0  0  0  0  0  0
    9.1107   10.3880   21.3769 N   0  0  0  0  0  0  0  0  0  0  0  0
    3.9102    9.2008   20.3124 C   0  0  0  0  0  0  0  0  0  0  0  0
   12.7292   10.9960   18.4597 C   0  0  0  0  0  0  0  0  0  0  0  0
    9.3798    6.6793   23.6625 C   0  0  0  0  0  0  0  0  0  0  0  0
   14.7425   10.0739   19.0802 O   0  0  0  0  0  0  0  0  0  0  0  0
    5.1894    9.4673   20.7118 C   0  0  0  0  0  0  0  0  0  0  0  0
    7.3773    8.8224   21.4870 C   0  0  0  0  0  0  0  0  0  0  0  0
    8.4391    6.6439   21.0235 C   0  0  0  0  0  0  0  0  0  0  0  0
    9.6494   11.1353   20.4167 C   0  0  0  0  0  0  0  0  0  0  0  0
    8.1431    7.6829   21.9046 C   0  0  0  0  0  0  0  0  0  0  0  0
    7.7796   10.1314   21.5115 N   0  0  0  0  0  0  0  0  0  0  0  0
    9.2768    5.6183   21.4437 C   0  0  0  0  0  0  0  0  0  0  0  0
    8.6315    7.7322   23.1768 C   0  0  0  0  0  0  0  0  0  0  0  0
   13.0537    9.9821   20.5781 C   0  0  0  0  0  0  0  0  0  0  0  0
   10.3850    4.6575   23.2386 O   0  0  0  0  0  0  0  0  0  0  0  0
    4.2069    6.8450   20.7994 C   0  0  0  0  0  0  0  0  0  0  0  0
    3.0726   10.1043   19.8522 O   0  0  0  0  0  0  0  0  0  0  0  0
    5.5057    7.1196   21.1155 C   0  0  0  0  0  0  0  0  0  0  0  0
    7.0367   11.0229   21.9948 O   0  0  0  0  0  0  0  0  0  0  0  0
  1  8  4  0
  1 12  4  0
  2  9  1  0
  2 11  4  0
  2 25  4  0
  3 12  4  0
  3 14  1  0
  3 23  4  0
  4 13  4  0
  4 21  4  0
  4 24  1  0
  5  8  4  0
  5 23  4  0
  6 18  2  0
  7 15  4  0
  7 16  1  0
  7 27  4  0
  8 18  1  0
 10 18  1  0
 10 20  1  0
 11 15  4  0
 11 26  1  0
 13 22  4  0
 16 19  1  0
 16 20  2  0
 17 19  4  0
 17 21  4  0
 19 22  4  0
 20 28  1  0
 25 27  4  0
M  END
$$$$

 Created by Python create_sdf_string function

 28 30  0  0  0  0  0  0  0  0999 V2000
   11.4592   11.2893   18.7941 C   0  0  0  0  0  0  0  0  0  0  0  0
    3.4202    7.9009   20.3866 C   0  0  0  0  0  0  0  0  0  0  0  0
   13.5280   10.3522   19.3586 C   0  0  0  0  0  0  0  0  0  0  0  0
    9.6923    5.6468   22.7891 C   0  0  0  0  0  0  0  0  0  0  0  0
   11.7756   10.2554   20.8841 N   0  0  0  0  0  0  0  0  0  0  0  0
    8.9876   11.9370   19.8757 O   0  0  0  0  0  0  0  0  0  0  0  0
    6.0167    8.4478   21.1089 C   0  0  0  0  0  0  0  0  0  0  0  0
   11.0002   10.8890   20.0262 C   0  0  0  0  0  0  0  0  0  0  0  0
    2.1721    7.7393   20.0315 O   0  0  0  0  0  0  0  0  0  0  0  0
    9.1107   10.3880   21.3769 N   0  0  0  0  0  0  0  0  0  0  0  0
    3.9102    9.2008   20.3124 C   0  0  0  0  0  0  0  0  0  0  0  0
   12.7292   10.9960   18.4597 C   0  0  0  0  0  0  0  0  0  0  0  0
    9.3798    6.6793   23.6625 C   0  0  0  0  0  0  0  0  0  0  0  0
   14.7425   10.0739   19.0802 O   0  0  0  0  0  0  0  0  0  0  0  0
    5.1894    9.4673   20.7118 C   0  0  0  0  0  0  0  0  0  0  0  0
    7.3773    8.8224   21.4870 C   0  0  0  0  0  0  0  0  0  0  0  0
    8.4391    6.6439   21.0235 C   0  0  0  0  0  0  0  0  0  0  0  0
    9.6494   11.1353   20.4167 C   0  0  0  0  0  0  0  0  0  0  0  0
    8.1431    7.6829   21.9046 C   0  0  0  0  0  0  0  0  0  0  0  0
    7.7796   10.1314   21.5115 N   0  0  0  0  0  0  0  0  0  0  0  0
    9.2768    5.6183   21.4437 C   0  0  0  0  0  0  0  0  0  0  0  0
    8.6315    7.7322   23.1768 C   0  0  0  0  0  0  0  0  0  0  0  0
   13.0537    9.9821   20.5781 C   0  0  0  0  0  0  0  0  0  0  0  0
   10.3850    4.6575   23.2386 O   0  0  0  0  0  0  0  0  0  0  0  0
    4.2069    6.8450   20.7994 C   0  0  0  0  0  0  0  0  0  0  0  0
    3.0726   10.1043   19.8522 O   0  0  0  0  0  0  0  0  0  0  0  0
    5.5057    7.1196   21.1155 C   0  0  0  0  0  0  0  0  0  0  0  0
    7.0367   11.0229   21.9948 O   0  0  0  0  0  0  0  0  0  0  0  0
  1  8  4  0
  1 12  4  0
  2  9  1  0
  2 11  4  0
  2 25  4  0
  3 12  4  0
  3 14  1  0
  3 23  4  0
  4 13  4  0
  4 21  4  0
  4 24  1  0
  5  8  4  0
  5 23  4  0
  6 18  2  0
  7 15  4  0
  7 16  1  0
  7 27  4  0
  8 18  1  0
 10 18  1  0
 10 20  1  0
 11 15  4  0
 11 26  1  0
 13 22  4  0
 16 19  1  0
 16 20  2  0
 17 19  4  0
 17 21  4  0
 19 22  4  0
 20 28  1  0
 25 27  4  0
M  END
$$$$

 Created by Python create_sdf_string function

 28 30  0  0  0  0  0  0  0  0999 V2000
   11.4592   11.2893   18.7941 C   0  0  0  0  0  0  0  0  0  0  0  0
    3.4202    7.9009   20.3866 C   0  0  0  0  0  0  0  0  0  0  0  0
   13.5280   10.3522   19.3586 C   0  0  0  0  0  0  0  0  0  0  0  0
    9.6923    5.6468   22.7891 C   0  0  0  0  0  0  0  0  0  0  0  0
   11.7756   10.2554   20.8841 N   0  0  0  0  0  0  0  0  0  0  0  0
    8.9876   11.9370   19.8757 O   0  0  0  0  0  0  0  0  0  0  0  0
    6.0167    8.4478   21.1089 C   0  0  0  0  0  0  0  0  0  0  0  0
   11.0002   10.8890   20.0262 C   0  0  0  0  0  0  0  0  0  0  0  0
    2.1721    7.7393   20.0315 O   0  0  0  0  0  0  0  0  0  0  0  0
    9.1107   10.3880   21.3769 N   0  0  0  0  0  0  0  0  0  0  0  0
    3.9102    9.2008   20.3124 C   0  0  0  0  0  0  0  0  0  0  0  0
   12.7292   10.9960   18.4597 C   0  0  0  0  0  0  0  0  0  0  0  0
    9.3798    6.6793   23.6625 C   0  0  0  0  0  0  0  0  0  0  0  0
   14.7425   10.0739   19.0802 O   0  0  0  0  0  0  0  0  0  0  0  0
    5.1894    9.4673   20.7118 C   0  0  0  0  0  0  0  0  0  0  0  0
    7.3773    8.8224   21.4870 C   0  0  0  0  0  0  0  0  0  0  0  0
    8.4391    6.6439   21.0235 C   0  0  0  0  0  0  0  0  0  0  0  0
    9.6494   11.1353   20.4167 C   0  0  0  0  0  0  0  0  0  0  0  0
    8.1431    7.6829   21.9046 C   0  0  0  0  0  0  0  0  0  0  0  0
    7.7796   10.1314   21.5115 N   0  0  0  0  0  0  0  0  0  0  0  0
    9.2768    5.6183   21.4437 C   0  0  0  0  0  0  0  0  0  0  0  0
    8.6315    7.7322   23.1768 C   0  0  0  0  0  0  0  0  0  0  0  0
   13.0537    9.9821   20.5781 C   0  0  0  0  0  0  0  0  0  0  0  0
   10.3850    4.6575   23.2386 O   0  0  0  0  0  0  0  0  0  0  0  0
    4.2069    6.8450   20.7994 C   0  0  0  0  0  0  0  0  0  0  0  0
    3.0726   10.1043   19.8522 O   0  0  0  0  0  0  0  0  0  0  0  0
    5.5057    7.1196   21.1155 C   0  0  0  0  0  0  0  0  0  0  0  0
    7.0367   11.0229   21.9948 O   0  0  0  0  0  0  0  0  0  0  0  0
  1  8  4  0
  1 12  4  0
  2  9  1  0
  2 11  4  0
  2 25  4  0
  3 12  4  0
  3 14  1  0
  3 23  4  0
  4 13  4  0
  4 21  4  0
  4 24  1  0
  5  8  4  0
  5 23  4  0
  6 18  2  0
  7 15  4  0
  7 16  1  0
  7 27  4  0
  8 18  1  0
 10 18  1  0
 10 20  1  0
 11 15  4  0
 11 26  1  0
 13 22  4  0
 16 19  1  0
 16 20  2  0
 17 19  4  0
 17 21  4  0
 19 22  4  0
 20 28  1  0
 25 27  4  0
M  END
$$$$

 Created by Python create_sdf_string function

 28 30  0  0  0  0  0  0  0  0999 V2000
   11.4592   11.2893   18.7941 C   0  0  0  0  0  0  0  0  0  0  0  0
    3.4202    7.9009   20.3866 C   0  0  0  0  0  0  0  0  0  0  0  0
   13.5280   10.3522   19.3586 C   0  0  0  0  0  0  0  0  0  0  0  0
    9.6923    5.6468   22.7891 C   0  0  0  0  0  0  0  0  0  0  0  0
   11.7756   10.2554   20.8841 N   0  0  0  0  0  0  0  0  0  0  0  0
    8.9876   11.9370   19.8757 O   0  0  0  0  0  0  0  0  0  0  0  0
    6.0167    8.4478   21.1089 C   0  0  0  0  0  0  0  0  0  0  0  0
   11.0002   10.8890   20.0262 C   0  0  0  0  0  0  0  0  0  0  0  0
    2.1721    7.7393   20.0315 O   0  0  0  0  0  0  0  0  0  0  0  0
    9.1107   10.3880   21.3769 N   0  0  0  0  0  0  0  0  0  0  0  0
    3.9102    9.2008   20.3124 C   0  0  0  0  0  0  0  0  0  0  0  0
   12.7292   10.9960   18.4597 C   0  0  0  0  0  0  0  0  0  0  0  0
    9.3798    6.6793   23.6625 C   0  0  0  0  0  0  0  0  0  0  0  0
   14.7425   10.0739   19.0802 O   0  0  0  0  0  0  0  0  0  0  0  0
    5.1894    9.4673   20.7118 C   0  0  0  0  0  0  0  0  0  0  0  0
    7.3773    8.8224   21.4870 C   0  0  0  0  0  0  0  0  0  0  0  0
    8.4391    6.6439   21.0235 C   0  0  0  0  0  0  0  0  0  0  0  0
    9.6494   11.1353   20.4167 C   0  0  0  0  0  0  0  0  0  0  0  0
    8.1431    7.6829   21.9046 C   0  0  0  0  0  0  0  0  0  0  0  0
    7.7796   10.1314   21.5115 N   0  0  0  0  0  0  0  0  0  0  0  0
    9.2768    5.6183   21.4437 C   0  0  0  0  0  0  0  0  0  0  0  0
    8.6315    7.7322   23.1768 C   0  0  0  0  0  0  0  0  0  0  0  0
   13.0537    9.9821   20.5781 C   0  0  0  0  0  0  0  0  0  0  0  0
   10.3850    4.6575   23.2386 O   0  0  0  0  0  0  0  0  0  0  0  0
    4.2069    6.8450   20.7994 C   0  0  0  0  0  0  0  0  0  0  0  0
    3.0726   10.1043   19.8522 O   0  0  0  0  0  0  0  0  0  0  0  0
    5.5057    7.1196   21.1155 C   0  0  0  0  0  0  0  0  0  0  0  0
    7.0367   11.0229   21.9948 O   0  0  0  0  0  0  0  0  0  0  0  0
  1  8  4  0
  1 12  4  0
  2  9  1  0
  2 11  4  0
  2 25  4  0
  3 12  4  0
  3 14  1  0
  3 23  4  0
  4 13  4  0
  4 21  4  0
  4 24  1  0
  5  8  4  0
  5 23  4  0
  6 18  2  0
  7 15  4  0
  7 16  1  0
  7 27  4  0
  8 18  1  0
 10 18  1  0
 10 20  1  0
 11 15  4  0
 11 26  1  0
 13 22  4  0
 16 19  1  0
 16 20  2  0
 17 19  4  0
 17 21  4  0
 19 22  4  0
 20 28  1  0
 25 27  4  0
M  END
$$$$

 Created by Python create_sdf_string function

 28 30  0  0  0  0  0  0  0  0999 V2000
   11.4592   11.2893   18.7941 C   0  0  0  0  0  0  0  0  0  0  0  0
    3.4202    7.9009   20.3866 C   0  0  0  0  0  0  0  0  0  0  0  0
   13.5280   10.3522   19.3586 C   0  0  0  0  0  0  0  0  0  0  0  0
    9.6923    5.6468   22.7891 C   0  0  0  0  0  0  0  0  0  0  0  0
   11.7756   10.2554   20.8841 N   0  0  0  0  0  0  0  0  0  0  0  0
    8.9876   11.9370   19.8757 O   0  0  0  0  0  0  0  0  0  0  0  0
    6.0167    8.4478   21.1089 C   0  0  0  0  0  0  0  0  0  0  0  0
   11.0002   10.8890   20.0262 C   0  0  0  0  0  0  0  0  0  0  0  0
    2.1721    7.7393   20.0315 O   0  0  0  0  0  0  0  0  0  0  0  0
    9.1107   10.3880   21.3769 N   0  0  0  0  0  0  0  0  0  0  0  0
    3.9102    9.2008   20.3124 C   0  0  0  0  0  0  0  0  0  0  0  0
   12.7292   10.9960   18.4597 C   0  0  0  0  0  0  0  0  0  0  0  0
    9.3798    6.6793   23.6625 C   0  0  0  0  0  0  0  0  0  0  0  0
   14.7425   10.0739   19.0802 O   0  0  0  0  0  0  0  0  0  0  0  0
    5.1894    9.4673   20.7118 C   0  0  0  0  0  0  0  0  0  0  0  0
    7.3773    8.8224   21.4870 C   0  0  0  0  0  0  0  0  0  0  0  0
    8.4391    6.6439   21.0235 C   0  0  0  0  0  0  0  0  0  0  0  0
    9.6494   11.1353   20.4167 C   0  0  0  0  0  0  0  0  0  0  0  0
    8.1431    7.6829   21.9046 C   0  0  0  0  0  0  0  0  0  0  0  0
    7.7796   10.1314   21.5115 N   0  0  0  0  0  0  0  0  0  0  0  0
    9.2768    5.6183   21.4437 C   0  0  0  0  0  0  0  0  0  0  0  0
    8.6315    7.7322   23.1768 C   0  0  0  0  0  0  0  0  0  0  0  0
   13.0537    9.9821   20.5781 C   0  0  0  0  0  0  0  0  0  0  0  0
   10.3850    4.6575   23.2386 O   0  0  0  0  0  0  0  0  0  0  0  0
    4.2069    6.8450   20.7994 C   0  0  0  0  0  0  0  0  0  0  0  0
    3.0726   10.1043   19.8522 O   0  0  0  0  0  0  0  0  0  0  0  0
    5.5057    7.1196   21.1155 C   0  0  0  0  0  0  0  0  0  0  0  0
    7.0367   11.0229   21.9948 O   0  0  0  0  0  0  0  0  0  0  0  0
  1  8  4  0
  1 12  4  0
  2  9  1  0
  2 11  4  0
  2 25  4  0
  3 12  4  0
  3 14  1  0
  3 23  4  0
  4 13  4  0
  4 21  4  0
  4 24  1  0
  5  8  4  0
  5 23  4  0
  6 18  2  0
  7 15  4  0
  7 16  1  0
  7 27  4  0
  8 18  1  0
 10 18  1  0
 10 20  1  0
 11 15  4  0
 11 26  1  0
 13 22  4  0
 16 19  1  0
 16 20  2  0
 17 19  4  0
 17 21  4  0
 19 22  4  0
 20 28  1  0
 25 27  4  0
M  END
$$$$

 Created by Python create_sdf_string function

 28 30  0  0  0  0  0  0  0  0999 V2000
   11.4592   11.2893   18.7941 C   0  0  0  0  0  0  0  0  0  0  0  0
    3.4202    7.9009   20.3866 C   0  0  0  0  0  0  0  0  0  0  0  0
   13.5280   10.3522   19.3586 C   0  0  0  0  0  0  0  0  0  0  0  0
    9.6923    5.6468   22.7891 C   0  0  0  0  0  0  0  0  0  0  0  0
   11.7756   10.2554   20.8841 N   0  0  0  0  0  0  0  0  0  0  0  0
    8.9876   11.9370   19.8757 O   0  0  0  0  0  0  0  0  0  0  0  0
    6.0167    8.4478   21.1089 C   0  0  0  0  0  0  0  0  0  0  0  0
   11.0002   10.8890   20.0262 C   0  0  0  0  0  0  0  0  0  0  0  0
    2.1721    7.7393   20.0315 O   0  0  0  0  0  0  0  0  0  0  0  0
    9.1107   10.3880   21.3769 N   0  0  0  0  0  0  0  0  0  0  0  0
    3.9102    9.2008   20.3124 C   0  0  0  0  0  0  0  0  0  0  0  0
   12.7292   10.9960   18.4597 C   0  0  0  0  0  0  0  0  0  0  0  0
    9.3798    6.6793   23.6625 C   0  0  0  0  0  0  0  0  0  0  0  0
   14.7425   10.0739   19.0802 O   0  0  0  0  0  0  0  0  0  0  0  0
    5.1894    9.4673   20.7118 C   0  0  0  0  0  0  0  0  0  0  0  0
    7.3773    8.8224   21.4870 C   0  0  0  0  0  0  0  0  0  0  0  0
    8.4391    6.6439   21.0235 C   0  0  0  0  0  0  0  0  0  0  0  0
    9.6494   11.1353   20.4167 C   0  0  0  0  0  0  0  0  0  0  0  0
    8.1431    7.6829   21.9046 C   0  0  0  0  0  0  0  0  0  0  0  0
    7.7796   10.1314   21.5115 N   0  0  0  0  0  0  0  0  0  0  0  0
    9.2768    5.6183   21.4437 C   0  0  0  0  0  0  0  0  0  0  0  0
    8.6315    7.7322   23.1768 C   0  0  0  0  0  0  0  0  0  0  0  0
   13.0537    9.9821   20.5781 C   0  0  0  0  0  0  0  0  0  0  0  0
   10.3850    4.6575   23.2386 O   0  0  0  0  0  0  0  0  0  0  0  0
    4.2069    6.8450   20.7994 C   0  0  0  0  0  0  0  0  0  0  0  0
    3.0726   10.1043   19.8522 O   0  0  0  0  0  0  0  0  0  0  0  0
    5.5057    7.1196   21.1155 C   0  0  0  0  0  0  0  0  0  0  0  0
    7.0367   11.0229   21.9948 O   0  0  0  0  0  0  0  0  0  0  0  0
  1  8  4  0
  1 12  4  0
  2  9  1  0
  2 11  4  0
  2 25  4  0
  3 12  4  0
  3 14  1  0
  3 23  4  0
  4 13  4  0
  4 21  4  0
  4 24  1  0
  5  8  4  0
  5 23  4  0
  6 18  2  0
  7 15  4  0
  7 16  1  0
  7 27  4  0
  8 18  1  0
 10 18  1  0
 10 20  1  0
 11 15  4  0
 11 26  1  0
 13 22  4  0
 16 19  1  0
 16 20  2  0
 17 19  4  0
 17 21  4  0
 19 22  4  0
 20 28  1  0
 25 27  4  0
M  END
$$$$

 Created by Python create_sdf_string function

 28 30  0  0  0  0  0  0  0  0999 V2000
   11.4592   11.2893   18.7941 C   0  0  0  0  0  0  0  0  0  0  0  0
    3.4202    7.9009   20.3866 C   0  0  0  0  0  0  0  0  0  0  0  0
   13.5280   10.3522   19.3586 C   0  0  0  0  0  0  0  0  0  0  0  0
    9.6923    5.6468   22.7891 C   0  0  0  0  0  0  0  0  0  0  0  0
   11.7756   10.2554   20.8841 N   0  0  0  0  0  0  0  0  0  0  0  0
    8.9876   11.9370   19.8757 O   0  0  0  0  0  0  0  0  0  0  0  0
    6.0167    8.4478   21.1089 C   0  0  0  0  0  0  0  0  0  0  0  0
   11.0002   10.8890   20.0262 C   0  0  0  0  0  0  0  0  0  0  0  0
    2.1721    7.7393   20.0315 O   0  0  0  0  0  0  0  0  0  0  0  0
    9.1107   10.3880   21.3769 N   0  0  0  0  0  0  0  0  0  0  0  0
    3.9102    9.2008   20.3124 C   0  0  0  0  0  0  0  0  0  0  0  0
   12.7292   10.9960   18.4597 C   0  0  0  0  0  0  0  0  0  0  0  0
    9.3798    6.6793   23.6625 C   0  0  0  0  0  0  0  0  0  0  0  0
   14.7425   10.0739   19.0802 O   0  0  0  0  0  0  0  0  0  0  0  0
    5.1894    9.4673   20.7118 C   0  0  0  0  0  0  0  0  0  0  0  0
    7.3773    8.8224   21.4870 C   0  0  0  0  0  0  0  0  0  0  0  0
    8.4391    6.6439   21.0235 C   0  0  0  0  0  0  0  0  0  0  0  0
    9.6494   11.1353   20.4167 C   0  0  0  0  0  0  0  0  0  0  0  0
    8.1431    7.6829   21.9046 C   0  0  0  0  0  0  0  0  0  0  0  0
    7.7796   10.1314   21.5115 N   0  0  0  0  0  0  0  0  0  0  0  0
    9.2768    5.6183   21.4437 C   0  0  0  0  0  0  0  0  0  0  0  0
    8.6315    7.7322   23.1768 C   0  0  0  0  0  0  0  0  0  0  0  0
   13.0537    9.9821   20.5781 C   0  0  0  0  0  0  0  0  0  0  0  0
   10.3850    4.6575   23.2386 O   0  0  0  0  0  0  0  0  0  0  0  0
    4.2069    6.8450   20.7994 C   0  0  0  0  0  0  0  0  0  0  0  0
    3.0726   10.1043   19.8522 O   0  0  0  0  0  0  0  0  0  0  0  0
    5.5057    7.1196   21.1155 C   0  0  0  0  0  0  0  0  0  0  0  0
    7.0367   11.0229   21.9948 O   0  0  0  0  0  0  0  0  0  0  0  0
  1  8  4  0
  1 12  4  0
  2  9  1  0
  2 11  4  0
  2 25  4  0
  3 12  4  0
  3 14  1  0
  3 23  4  0
  4 13  4  0
  4 21  4  0
  4 24  1  0
  5  8  4  0
  5 23  4  0
  6 18  2  0
  7 15  4  0
  7 16  1  0
  7 27  4  0
  8 18  1  0
 10 18  1  0
 10 20  1  0
 11 15  4  0
 11 26  1  0
 13 22  4  0
 16 19  1  0
 16 20  2  0
 17 19  4  0
 17 21  4  0
 19 22  4  0
 20 28  1  0
 25 27  4  0
M  END
$$$$

 Created by Python create_sdf_string function

 28 30  0  0  0  0  0  0  0  0999 V2000
   11.4592   11.2893   18.7941 C   0  0  0  0  0  0  0  0  0  0  0  0
    3.4202    7.9009   20.3866 C   0  0  0  0  0  0  0  0  0  0  0  0
   13.5280   10.3522   19.3586 C   0  0  0  0  0  0  0  0  0  0  0  0
    9.6923    5.6468   22.7891 C   0  0  0  0  0  0  0  0  0  0  0  0
   11.7756   10.2554   20.8841 N   0  0  0  0  0  0  0  0  0  0  0  0
    8.9876   11.9370   19.8757 O   0  0  0  0  0  0  0  0  0  0  0  0
    6.0167    8.4478   21.1089 C   0  0  0  0  0  0  0  0  0  0  0  0
   11.0002   10.8890   20.0262 C   0  0  0  0  0  0  0  0  0  0  0  0
    2.1721    7.7393   20.0315 O   0  0  0  0  0  0  0  0  0  0  0  0
    9.1107   10.3880   21.3769 N   0  0  0  0  0  0  0  0  0  0  0  0
    3.9102    9.2008   20.3124 C   0  0  0  0  0  0  0  0  0  0  0  0
   12.7292   10.9960   18.4597 C   0  0  0  0  0  0  0  0  0  0  0  0
    9.3798    6.6793   23.6625 C   0  0  0  0  0  0  0  0  0  0  0  0
   14.7425   10.0739   19.0802 O   0  0  0  0  0  0  0  0  0  0  0  0
    5.1894    9.4673   20.7118 C   0  0  0  0  0  0  0  0  0  0  0  0
    7.3773    8.8224   21.4870 C   0  0  0  0  0  0  0  0  0  0  0  0
    8.4391    6.6439   21.0235 C   0  0  0  0  0  0  0  0  0  0  0  0
    9.6494   11.1353   20.4167 C   0  0  0  0  0  0  0  0  0  0  0  0
    8.1431    7.6829   21.9046 C   0  0  0  0  0  0  0  0  0  0  0  0
    7.7796   10.1314   21.5115 N   0  0  0  0  0  0  0  0  0  0  0  0
    9.2768    5.6183   21.4437 C   0  0  0  0  0  0  0  0  0  0  0  0
    8.6315    7.7322   23.1768 C   0  0  0  0  0  0  0  0  0  0  0  0
   13.0537    9.9821   20.5781 C   0  0  0  0  0  0  0  0  0  0  0  0
   10.3850    4.6575   23.2386 O   0  0  0  0  0  0  0  0  0  0  0  0
    4.2069    6.8450   20.7994 C   0  0  0  0  0  0  0  0  0  0  0  0
    3.0726   10.1043   19.8522 O   0  0  0  0  0  0  0  0  0  0  0  0
    5.5057    7.1196   21.1155 C   0  0  0  0  0  0  0  0  0  0  0  0
    7.0367   11.0229   21.9948 O   0  0  0  0  0  0  0  0  0  0  0  0
  1  8  4  0
  1 12  4  0
  2  9  1  0
  2 11  4  0
  2 25  4  0
  3 12  4  0
  3 14  1  0
  3 23  4  0
  4 13  4  0
  4 21  4  0
  4 24  1  0
  5  8  4  0
  5 23  4  0
  6 18  2  0
  7 15  4  0
  7 16  1  0
  7 27  4  0
  8 18  1  0
 10 18  1  0
 10 20  1  0
 11 15  4  0
 11 26  1  0
 13 22  4  0
 16 19  1  0
 16 20  2  0
 17 19  4  0
 17 21  4  0
 19 22  4  0
 20 28  1  0
 25 27  4  0
M  END
$$$$

 Created by Python create_sdf_string function

 28 30  0  0  0  0  0  0  0  0999 V2000
   11.4592   11.2893   18.7941 C   0  0  0  0  0  0  0  0  0  0  0  0
    3.4202    7.9009   20.3866 C   0  0  0  0  0  0  0  0  0  0  0  0
   13.5280   10.3522   19.3586 C   0  0  0  0  0  0  0  0  0  0  0  0
    9.6923    5.6468   22.7891 C   0  0  0  0  0  0  0  0  0  0  0  0
   11.7756   10.2554   20.8841 N   0  0  0  0  0  0  0  0  0  0  0  0
    8.9876   11.9370   19.8757 O   0  0  0  0  0  0  0  0  0  0  0  0
    6.0167    8.4478   21.1089 C   0  0  0  0  0  0  0  0  0  0  0  0
   11.0002   10.8890   20.0262 C   0  0  0  0  0  0  0  0  0  0  0  0
    2.1721    7.7393   20.0315 O   0  0  0  0  0  0  0  0  0  0  0  0
    9.1107   10.3880   21.3769 N   0  0  0  0  0  0  0  0  0  0  0  0
    3.9102    9.2008   20.3124 C   0  0  0  0  0  0  0  0  0  0  0  0
   12.7292   10.9960   18.4597 C   0  0  0  0  0  0  0  0  0  0  0  0
    9.3798    6.6793   23.6625 C   0  0  0  0  0  0  0  0  0  0  0  0
   14.7425   10.0739   19.0802 O   0  0  0  0  0  0  0  0  0  0  0  0
    5.1894    9.4673   20.7118 C   0  0  0  0  0  0  0  0  0  0  0  0
    7.3773    8.8224   21.4870 C   0  0  0  0  0  0  0  0  0  0  0  0
    8.4391    6.6439   21.0235 C   0  0  0  0  0  0  0  0  0  0  0  0
    9.6494   11.1353   20.4167 C   0  0  0  0  0  0  0  0  0  0  0  0
    8.1431    7.6829   21.9046 C   0  0  0  0  0  0  0  0  0  0  0  0
    7.7796   10.1314   21.5115 N   0  0  0  0  0  0  0  0  0  0  0  0
    9.2768    5.6183   21.4437 C   0  0  0  0  0  0  0  0  0  0  0  0
    8.6315    7.7322   23.1768 C   0  0  0  0  0  0  0  0  0  0  0  0
   13.0537    9.9821   20.5781 C   0  0  0  0  0  0  0  0  0  0  0  0
   10.3850    4.6575   23.2386 O   0  0  0  0  0  0  0  0  0  0  0  0
    4.2069    6.8450   20.7994 C   0  0  0  0  0  0  0  0  0  0  0  0
    3.0726   10.1043   19.8522 O   0  0  0  0  0  0  0  0  0  0  0  0
    5.5057    7.1196   21.1155 C   0  0  0  0  0  0  0  0  0  0  0  0
    7.0367   11.0229   21.9948 O   0  0  0  0  0  0  0  0  0  0  0  0
  1  8  4  0
  1 12  4  0
  2  9  1  0
  2 11  4  0
  2 25  4  0
  3 12  4  0
  3 14  1  0
  3 23  4  0
  4 13  4  0
  4 21  4  0
  4 24  1  0
  5  8  4  0
  5 23  4  0
  6 18  2  0
  7 15  4  0
  7 16  1  0
  7 27  4  0
  8 18  1  0
 10 18  1  0
 10 20  1  0
 11 15  4  0
 11 26  1  0
 13 22  4  0
 16 19  1  0
 16 20  2  0
 17 19  4  0
 17 21  4  0
 19 22  4  0
 20 28  1  0
 25 27  4  0
M  END
$$$$

 Created by Python create_sdf_string function

 28 30  0  0  0  0  0  0  0  0999 V2000
   11.4592   11.2893   18.7941 C   0  0  0  0  0  0  0  0  0  0  0  0
    3.4202    7.9009   20.3866 C   0  0  0  0  0  0  0  0  0  0  0  0
   13.5280   10.3522   19.3586 C   0  0  0  0  0  0  0  0  0  0  0  0
    9.6923    5.6468   22.7891 C   0  0  0  0  0  0  0  0  0  0  0  0
   11.7756   10.2554   20.8841 N   0  0  0  0  0  0  0  0  0  0  0  0
    8.9876   11.9370   19.8757 O   0  0  0  0  0  0  0  0  0  0  0  0
    6.0167    8.4478   21.1089 C   0  0  0  0  0  0  0  0  0  0  0  0
   11.0002   10.8890   20.0262 C   0  0  0  0  0  0  0  0  0  0  0  0
    2.1721    7.7393   20.0315 O   0  0  0  0  0  0  0  0  0  0  0  0
    9.1107   10.3880   21.3769 N   0  0  0  0  0  0  0  0  0  0  0  0
    3.9102    9.2008   20.3124 C   0  0  0  0  0  0  0  0  0  0  0  0
   12.7292   10.9960   18.4597 C   0  0  0  0  0  0  0  0  0  0  0  0
    9.3798    6.6793   23.6625 C   0  0  0  0  0  0  0  0  0  0  0  0
   14.7425   10.0739   19.0802 O   0  0  0  0  0  0  0  0  0  0  0  0
    5.1894    9.4673   20.7118 C   0  0  0  0  0  0  0  0  0  0  0  0
    7.3773    8.8224   21.4870 C   0  0  0  0  0  0  0  0  0  0  0  0
    8.4391    6.6439   21.0235 C   0  0  0  0  0  0  0  0  0  0  0  0
    9.6494   11.1353   20.4167 C   0  0  0  0  0  0  0  0  0  0  0  0
    8.1431    7.6829   21.9046 C   0  0  0  0  0  0  0  0  0  0  0  0
    7.7796   10.1314   21.5115 N   0  0  0  0  0  0  0  0  0  0  0  0
    9.2768    5.6183   21.4437 C   0  0  0  0  0  0  0  0  0  0  0  0
    8.6315    7.7322   23.1768 C   0  0  0  0  0  0  0  0  0  0  0  0
   13.0537    9.9821   20.5781 C   0  0  0  0  0  0  0  0  0  0  0  0
   10.3850    4.6575   23.2386 O   0  0  0  0  0  0  0  0  0  0  0  0
    4.2069    6.8450   20.7994 C   0  0  0  0  0  0  0  0  0  0  0  0
    3.0726   10.1043   19.8522 O   0  0  0  0  0  0  0  0  0  0  0  0
    5.5057    7.1196   21.1155 C   0  0  0  0  0  0  0  0  0  0  0  0
    7.0367   11.0229   21.9948 O   0  0  0  0  0  0  0  0  0  0  0  0
  1  8  4  0
  1 12  4  0
  2  9  1  0
  2 11  4  0
  2 25  4  0
  3 12  4  0
  3 14  1  0
  3 23  4  0
  4 13  4  0
  4 21  4  0
  4 24  1  0
  5  8  4  0
  5 23  4  0
  6 18  2  0
  7 15  4  0
  7 16  1  0
  7 27  4  0
  8 18  1  0
 10 18  1  0
 10 20  1  0
 11 15  4  0
 11 26  1  0
 13 22  4  0
 16 19  1  0
 16 20  2  0
 17 19  4  0
 17 21  4  0
 19 22  4  0
 20 28  1  0
 25 27  4  0
M  END
$$$$

 Created by Python create_sdf_string function

 28 30  0  0  0  0  0  0  0  0999 V2000
   11.4592   11.2893   18.7941 C   0  0  0  0  0  0  0  0  0  0  0  0
    3.4202    7.9009   20.3866 C   0  0  0  0  0  0  0  0  0  0  0  0
   13.5280   10.3522   19.3586 C   0  0  0  0  0  0  0  0  0  0  0  0
    9.6923    5.6468   22.7891 C   0  0  0  0  0  0  0  0  0  0  0  0
   11.7756   10.2554   20.8841 N   0  0  0  0  0  0  0  0  0  0  0  0
    8.9876   11.9370   19.8757 O   0  0  0  0  0  0  0  0  0  0  0  0
    6.0167    8.4478   21.1089 C   0  0  0  0  0  0  0  0  0  0  0  0
   11.0002   10.8890   20.0262 C   0  0  0  0  0  0  0  0  0  0  0  0
    2.1721    7.7393   20.0315 O   0  0  0  0  0  0  0  0  0  0  0  0
    9.1107   10.3880   21.3769 N   0  0  0  0  0  0  0  0  0  0  0  0
    3.9102    9.2008   20.3124 C   0  0  0  0  0  0  0  0  0  0  0  0
   12.7292   10.9960   18.4597 C   0  0  0  0  0  0  0  0  0  0  0  0
    9.3798    6.6793   23.6625 C   0  0  0  0  0  0  0  0  0  0  0  0
   14.7425   10.0739   19.0802 O   0  0  0  0  0  0  0  0  0  0  0  0
    5.1894    9.4673   20.7118 C   0  0  0  0  0  0  0  0  0  0  0  0
    7.3773    8.8224   21.4870 C   0  0  0  0  0  0  0  0  0  0  0  0
    8.4391    6.6439   21.0235 C   0  0  0  0  0  0  0  0  0  0  0  0
    9.6494   11.1353   20.4167 C   0  0  0  0  0  0  0  0  0  0  0  0
    8.1431    7.6829   21.9046 C   0  0  0  0  0  0  0  0  0  0  0  0
    7.7796   10.1314   21.5115 N   0  0  0  0  0  0  0  0  0  0  0  0
    9.2768    5.6183   21.4437 C   0  0  0  0  0  0  0  0  0  0  0  0
    8.6315    7.7322   23.1768 C   0  0  0  0  0  0  0  0  0  0  0  0
   13.0537    9.9821   20.5781 C   0  0  0  0  0  0  0  0  0  0  0  0
   10.3850    4.6575   23.2386 O   0  0  0  0  0  0  0  0  0  0  0  0
    4.2069    6.8450   20.7994 C   0  0  0  0  0  0  0  0  0  0  0  0
    3.0726   10.1043   19.8522 O   0  0  0  0  0  0  0  0  0  0  0  0
    5.5057    7.1196   21.1155 C   0  0  0  0  0  0  0  0  0  0  0  0
    7.0367   11.0229   21.9948 O   0  0  0  0  0  0  0  0  0  0  0  0
  1  8  4  0
  1 12  4  0
  2  9  1  0
  2 11  4  0
  2 25  4  0
  3 12  4  0
  3 14  1  0
  3 23  4  0
  4 13  4  0
  4 21  4  0
  4 24  1  0
  5  8  4  0
  5 23  4  0
  6 18  2  0
  7 15  4  0
  7 16  1  0
  7 27  4  0
  8 18  1  0
 10 18  1  0
 10 20  1  0
 11 15  4  0
 11 26  1  0
 13 22  4  0
 16 19  1  0
 16 20  2  0
 17 19  4  0
 17 21  4  0
 19 22  4  0
 20 28  1  0
 25 27  4  0
M  END
$$$$

 Created by Python create_sdf_string function

 28 30  0  0  0  0  0  0  0  0999 V2000
   11.4592   11.2893   18.7941 C   0  0  0  0  0  0  0  0  0  0  0  0
    3.4202    7.9009   20.3866 C   0  0  0  0  0  0  0  0  0  0  0  0
   13.5280   10.3522   19.3586 C   0  0  0  0  0  0  0  0  0  0  0  0
    9.6923    5.6468   22.7891 C   0  0  0  0  0  0  0  0  0  0  0  0
   11.7756   10.2554   20.8841 N   0  0  0  0  0  0  0  0  0  0  0  0
    8.9876   11.9370   19.8757 O   0  0  0  0  0  0  0  0  0  0  0  0
    6.0167    8.4478   21.1089 C   0  0  0  0  0  0  0  0  0  0  0  0
   11.0002   10.8890   20.0262 C   0  0  0  0  0  0  0  0  0  0  0  0
    2.1721    7.7393   20.0315 O   0  0  0  0  0  0  0  0  0  0  0  0
    9.1107   10.3880   21.3769 N   0  0  0  0  0  0  0  0  0  0  0  0
    3.9102    9.2008   20.3124 C   0  0  0  0  0  0  0  0  0  0  0  0
   12.7292   10.9960   18.4597 C   0  0  0  0  0  0  0  0  0  0  0  0
    9.3798    6.6793   23.6625 C   0  0  0  0  0  0  0  0  0  0  0  0
   14.7425   10.0739   19.0802 O   0  0  0  0  0  0  0  0  0  0  0  0
    5.1894    9.4673   20.7118 C   0  0  0  0  0  0  0  0  0  0  0  0
    7.3773    8.8224   21.4870 C   0  0  0  0  0  0  0  0  0  0  0  0
    8.4391    6.6439   21.0235 C   0  0  0  0  0  0  0  0  0  0  0  0
    9.6494   11.1353   20.4167 C   0  0  0  0  0  0  0  0  0  0  0  0
    8.1431    7.6829   21.9046 C   0  0  0  0  0  0  0  0  0  0  0  0
    7.7796   10.1314   21.5115 N   0  0  0  0  0  0  0  0  0  0  0  0
    9.2768    5.6183   21.4437 C   0  0  0  0  0  0  0  0  0  0  0  0
    8.6315    7.7322   23.1768 C   0  0  0  0  0  0  0  0  0  0  0  0
   13.0537    9.9821   20.5781 C   0  0  0  0  0  0  0  0  0  0  0  0
   10.3850    4.6575   23.2386 O   0  0  0  0  0  0  0  0  0  0  0  0
    4.2069    6.8450   20.7994 C   0  0  0  0  0  0  0  0  0  0  0  0
    3.0726   10.1043   19.8522 O   0  0  0  0  0  0  0  0  0  0  0  0
    5.5057    7.1196   21.1155 C   0  0  0  0  0  0  0  0  0  0  0  0
    7.0367   11.0229   21.9948 O   0  0  0  0  0  0  0  0  0  0  0  0
  1  8  4  0
  1 12  4  0
  2  9  1  0
  2 11  4  0
  2 25  4  0
  3 12  4  0
  3 14  1  0
  3 23  4  0
  4 13  4  0
  4 21  4  0
  4 24  1  0
  5  8  4  0
  5 23  4  0
  6 18  2  0
  7 15  4  0
  7 16  1  0
  7 27  4  0
  8 18  1  0
 10 18  1  0
 10 20  1  0
 11 15  4  0
 11 26  1  0
 13 22  4  0
 16 19  1  0
 16 20  2  0
 17 19  4  0
 17 21  4  0
 19 22  4  0
 20 28  1  0
 25 27  4  0
M  END
$$$$

 Created by Python create_sdf_string function

 28 30  0  0  0  0  0  0  0  0999 V2000
   11.4592   11.2893   18.7941 C   0  0  0  0  0  0  0  0  0  0  0  0
    3.4202    7.9009   20.3866 C   0  0  0  0  0  0  0  0  0  0  0  0
   13.5280   10.3522   19.3586 C   0  0  0  0  0  0  0  0  0  0  0  0
    9.6923    5.6468   22.7891 C   0  0  0  0  0  0  0  0  0  0  0  0
   11.7756   10.2554   20.8841 N   0  0  0  0  0  0  0  0  0  0  0  0
    8.9876   11.9370   19.8757 O   0  0  0  0  0  0  0  0  0  0  0  0
    6.0167    8.4478   21.1089 C   0  0  0  0  0  0  0  0  0  0  0  0
   11.0002   10.8890   20.0262 C   0  0  0  0  0  0  0  0  0  0  0  0
    2.1721    7.7393   20.0315 O   0  0  0  0  0  0  0  0  0  0  0  0
    9.1107   10.3880   21.3769 N   0  0  0  0  0  0  0  0  0  0  0  0
    3.9102    9.2008   20.3124 C   0  0  0  0  0  0  0  0  0  0  0  0
   12.7292   10.9960   18.4597 C   0  0  0  0  0  0  0  0  0  0  0  0
    9.3798    6.6793   23.6625 C   0  0  0  0  0  0  0  0  0  0  0  0
   14.7425   10.0739   19.0802 O   0  0  0  0  0  0  0  0  0  0  0  0
    5.1894    9.4673   20.7118 C   0  0  0  0  0  0  0  0  0  0  0  0
    7.3773    8.8224   21.4870 C   0  0  0  0  0  0  0  0  0  0  0  0
    8.4391    6.6439   21.0235 C   0  0  0  0  0  0  0  0  0  0  0  0
    9.6494   11.1353   20.4167 C   0  0  0  0  0  0  0  0  0  0  0  0
    8.1431    7.6829   21.9046 C   0  0  0  0  0  0  0  0  0  0  0  0
    7.7796   10.1314   21.5115 N   0  0  0  0  0  0  0  0  0  0  0  0
    9.2768    5.6183   21.4437 C   0  0  0  0  0  0  0  0  0  0  0  0
    8.6315    7.7322   23.1768 C   0  0  0  0  0  0  0  0  0  0  0  0
   13.0537    9.9821   20.5781 C   0  0  0  0  0  0  0  0  0  0  0  0
   10.3850    4.6575   23.2386 O   0  0  0  0  0  0  0  0  0  0  0  0
    4.2069    6.8450   20.7994 C   0  0  0  0  0  0  0  0  0  0  0  0
    3.0726   10.1043   19.8522 O   0  0  0  0  0  0  0  0  0  0  0  0
    5.5057    7.1196   21.1155 C   0  0  0  0  0  0  0  0  0  0  0  0
    7.0367   11.0229   21.9948 O   0  0  0  0  0  0  0  0  0  0  0  0
  1  8  4  0
  1 12  4  0
  2  9  1  0
  2 11  4  0
  2 25  4  0
  3 12  4  0
  3 14  1  0
  3 23  4  0
  4 13  4  0
  4 21  4  0
  4 24  1  0
  5  8  4  0
  5 23  4  0
  6 18  2  0
  7 15  4  0
  7 16  1  0
  7 27  4  0
  8 18  1  0
 10 18  1  0
 10 20  1  0
 11 15  4  0
 11 26  1  0
 13 22  4  0
 16 19  1  0
 16 20  2  0
 17 19  4  0
 17 21  4  0
 19 22  4  0
 20 28  1  0
 25 27  4  0
M  END
$$$$

 Created by Python create_sdf_string function

 28 30  0  0  0  0  0  0  0  0999 V2000
   11.4592   11.2893   18.7941 C   0  0  0  0  0  0  0  0  0  0  0  0
    3.4202    7.9009   20.3866 C   0  0  0  0  0  0  0  0  0  0  0  0
   13.5280   10.3522   19.3586 C   0  0  0  0  0  0  0  0  0  0  0  0
    9.6923    5.6468   22.7891 C   0  0  0  0  0  0  0  0  0  0  0  0
   11.7756   10.2554   20.8841 N   0  0  0  0  0  0  0  0  0  0  0  0
    8.9876   11.9370   19.8757 O   0  0  0  0  0  0  0  0  0  0  0  0
    6.0167    8.4478   21.1089 C   0  0  0  0  0  0  0  0  0  0  0  0
   11.0002   10.8890   20.0262 C   0  0  0  0  0  0  0  0  0  0  0  0
    2.1721    7.7393   20.0315 O   0  0  0  0  0  0  0  0  0  0  0  0
    9.1107   10.3880   21.3769 N   0  0  0  0  0  0  0  0  0  0  0  0
    3.9102    9.2008   20.3124 C   0  0  0  0  0  0  0  0  0  0  0  0
   12.7292   10.9960   18.4597 C   0  0  0  0  0  0  0  0  0  0  0  0
    9.3798    6.6793   23.6625 C   0  0  0  0  0  0  0  0  0  0  0  0
   14.7425   10.0739   19.0802 O   0  0  0  0  0  0  0  0  0  0  0  0
    5.1894    9.4673   20.7118 C   0  0  0  0  0  0  0  0  0  0  0  0
    7.3773    8.8224   21.4870 C   0  0  0  0  0  0  0  0  0  0  0  0
    8.4391    6.6439   21.0235 C   0  0  0  0  0  0  0  0  0  0  0  0
    9.6494   11.1353   20.4167 C   0  0  0  0  0  0  0  0  0  0  0  0
    8.1431    7.6829   21.9046 C   0  0  0  0  0  0  0  0  0  0  0  0
    7.7796   10.1314   21.5115 N   0  0  0  0  0  0  0  0  0  0  0  0
    9.2768    5.6183   21.4437 C   0  0  0  0  0  0  0  0  0  0  0  0
    8.6315    7.7322   23.1768 C   0  0  0  0  0  0  0  0  0  0  0  0
   13.0537    9.9821   20.5781 C   0  0  0  0  0  0  0  0  0  0  0  0
   10.3850    4.6575   23.2386 O   0  0  0  0  0  0  0  0  0  0  0  0
    4.2069    6.8450   20.7994 C   0  0  0  0  0  0  0  0  0  0  0  0
    3.0726   10.1043   19.8522 O   0  0  0  0  0  0  0  0  0  0  0  0
    5.5057    7.1196   21.1155 C   0  0  0  0  0  0  0  0  0  0  0  0
    7.0367   11.0229   21.9948 O   0  0  0  0  0  0  0  0  0  0  0  0
  1  8  4  0
  1 12  4  0
  2  9  1  0
  2 11  4  0
  2 25  4  0
  3 12  4  0
  3 14  1  0
  3 23  4  0
  4 13  4  0
  4 21  4  0
  4 24  1  0
  5  8  4  0
  5 23  4  0
  6 18  2  0
  7 15  4  0
  7 16  1  0
  7 27  4  0
  8 18  1  0
 10 18  1  0
 10 20  1  0
 11 15  4  0
 11 26  1  0
 13 22  4  0
 16 19  1  0
 16 20  2  0
 17 19  4  0
 17 21  4  0
 19 22  4  0
 20 28  1  0
 25 27  4  0
M  END
$$$$

 Created by Python create_sdf_string function

 28 30  0  0  0  0  0  0  0  0999 V2000
   11.4592   11.2893   18.7941 C   0  0  0  0  0  0  0  0  0  0  0  0
    3.4202    7.9009   20.3866 C   0  0  0  0  0  0  0  0  0  0  0  0
   13.5280   10.3522   19.3586 C   0  0  0  0  0  0  0  0  0  0  0  0
    9.6923    5.6468   22.7891 C   0  0  0  0  0  0  0  0  0  0  0  0
   11.7756   10.2554   20.8841 N   0  0  0  0  0  0  0  0  0  0  0  0
    8.9876   11.9370   19.8757 O   0  0  0  0  0  0  0  0  0  0  0  0
    6.0167    8.4478   21.1089 C   0  0  0  0  0  0  0  0  0  0  0  0
   11.0002   10.8890   20.0262 C   0  0  0  0  0  0  0  0  0  0  0  0
    2.1721    7.7393   20.0315 O   0  0  0  0  0  0  0  0  0  0  0  0
    9.1107   10.3880   21.3769 N   0  0  0  0  0  0  0  0  0  0  0  0
    3.9102    9.2008   20.3124 C   0  0  0  0  0  0  0  0  0  0  0  0
   12.7292   10.9960   18.4597 C   0  0  0  0  0  0  0  0  0  0  0  0
    9.3798    6.6793   23.6625 C   0  0  0  0  0  0  0  0  0  0  0  0
   14.7425   10.0739   19.0802 O   0  0  0  0  0  0  0  0  0  0  0  0
    5.1894    9.4673   20.7118 C   0  0  0  0  0  0  0  0  0  0  0  0
    7.3773    8.8224   21.4870 C   0  0  0  0  0  0  0  0  0  0  0  0
    8.4391    6.6439   21.0235 C   0  0  0  0  0  0  0  0  0  0  0  0
    9.6494   11.1353   20.4167 C   0  0  0  0  0  0  0  0  0  0  0  0
    8.1431    7.6829   21.9046 C   0  0  0  0  0  0  0  0  0  0  0  0
    7.7796   10.1314   21.5115 N   0  0  0  0  0  0  0  0  0  0  0  0
    9.2768    5.6183   21.4437 C   0  0  0  0  0  0  0  0  0  0  0  0
    8.6315    7.7322   23.1768 C   0  0  0  0  0  0  0  0  0  0  0  0
   13.0537    9.9821   20.5781 C   0  0  0  0  0  0  0  0  0  0  0  0
   10.3850    4.6575   23.2386 O   0  0  0  0  0  0  0  0  0  0  0  0
    4.2069    6.8450   20.7994 C   0  0  0  0  0  0  0  0  0  0  0  0
    3.0726   10.1043   19.8522 O   0  0  0  0  0  0  0  0  0  0  0  0
    5.5057    7.1196   21.1155 C   0  0  0  0  0  0  0  0  0  0  0  0
    7.0367   11.0229   21.9948 O   0  0  0  0  0  0  0  0  0  0  0  0
  1  8  4  0
  1 12  4  0
  2  9  1  0
  2 11  4  0
  2 25  4  0
  3 12  4  0
  3 14  1  0
  3 23  4  0
  4 13  4  0
  4 21  4  0
  4 24  1  0
  5  8  4  0
  5 23  4  0
  6 18  2  0
  7 15  4  0
  7 16  1  0
  7 27  4  0
  8 18  1  0
 10 18  1  0
 10 20  1  0
 11 15  4  0
 11 26  1  0
 13 22  4  0
 16 19  1  0
 16 20  2  0
 17 19  4  0
 17 21  4  0
 19 22  4  0
 20 28  1  0
 25 27  4  0
M  END
$$$$

 Created by Python create_sdf_string function

 28 30  0  0  0  0  0  0  0  0999 V2000
   11.4592   11.2893   18.7941 C   0  0  0  0  0  0  0  0  0  0  0  0
    3.4202    7.9009   20.3866 C   0  0  0  0  0  0  0  0  0  0  0  0
   13.5280   10.3522   19.3586 C   0  0  0  0  0  0  0  0  0  0  0  0
    9.6923    5.6468   22.7891 C   0  0  0  0  0  0  0  0  0  0  0  0
   11.7756   10.2554   20.8841 N   0  0  0  0  0  0  0  0  0  0  0  0
    8.9876   11.9370   19.8757 O   0  0  0  0  0  0  0  0  0  0  0  0
    6.0167    8.4478   21.1089 C   0  0  0  0  0  0  0  0  0  0  0  0
   11.0002   10.8890   20.0262 C   0  0  0  0  0  0  0  0  0  0  0  0
    2.1721    7.7393   20.0315 O   0  0  0  0  0  0  0  0  0  0  0  0
    9.1107   10.3880   21.3769 N   0  0  0  0  0  0  0  0  0  0  0  0
    3.9102    9.2008   20.3124 C   0  0  0  0  0  0  0  0  0  0  0  0
   12.7292   10.9960   18.4597 C   0  0  0  0  0  0  0  0  0  0  0  0
    9.3798    6.6793   23.6625 C   0  0  0  0  0  0  0  0  0  0  0  0
   14.7425   10.0739   19.0802 O   0  0  0  0  0  0  0  0  0  0  0  0
    5.1894    9.4673   20.7118 C   0  0  0  0  0  0  0  0  0  0  0  0
    7.3773    8.8224   21.4870 C   0  0  0  0  0  0  0  0  0  0  0  0
    8.4391    6.6439   21.0235 C   0  0  0  0  0  0  0  0  0  0  0  0
    9.6494   11.1353   20.4167 C   0  0  0  0  0  0  0  0  0  0  0  0
    8.1431    7.6829   21.9046 C   0  0  0  0  0  0  0  0  0  0  0  0
    7.7796   10.1314   21.5115 N   0  0  0  0  0  0  0  0  0  0  0  0
    9.2768    5.6183   21.4437 C   0  0  0  0  0  0  0  0  0  0  0  0
    8.6315    7.7322   23.1768 C   0  0  0  0  0  0  0  0  0  0  0  0
   13.0537    9.9821   20.5781 C   0  0  0  0  0  0  0  0  0  0  0  0
   10.3850    4.6575   23.2386 O   0  0  0  0  0  0  0  0  0  0  0  0
    4.2069    6.8450   20.7994 C   0  0  0  0  0  0  0  0  0  0  0  0
    3.0726   10.1043   19.8522 O   0  0  0  0  0  0  0  0  0  0  0  0
    5.5057    7.1196   21.1155 C   0  0  0  0  0  0  0  0  0  0  0  0
    7.0367   11.0229   21.9948 O   0  0  0  0  0  0  0  0  0  0  0  0
  1  8  4  0
  1 12  4  0
  2  9  1  0
  2 11  4  0
  2 25  4  0
  3 12  4  0
  3 14  1  0
  3 23  4  0
  4 13  4  0
  4 21  4  0
  4 24  1  0
  5  8  4  0
  5 23  4  0
  6 18  2  0
  7 15  4  0
  7 16  1  0
  7 27  4  0
  8 18  1  0
 10 18  1  0
 10 20  1  0
 11 15  4  0
 11 26  1  0
 13 22  4  0
 16 19  1  0
 16 20  2  0
 17 19  4  0
 17 21  4  0
 19 22  4  0
 20 28  1  0
 25 27  4  0
M  END
$$$$

 Created by Python create_sdf_string function

 28 30  0  0  0  0  0  0  0  0999 V2000
   11.4592   11.2893   18.7941 C   0  0  0  0  0  0  0  0  0  0  0  0
    3.4202    7.9009   20.3866 C   0  0  0  0  0  0  0  0  0  0  0  0
   13.5280   10.3522   19.3586 C   0  0  0  0  0  0  0  0  0  0  0  0
    9.6923    5.6468   22.7891 C   0  0  0  0  0  0  0  0  0  0  0  0
   11.7756   10.2554   20.8841 N   0  0  0  0  0  0  0  0  0  0  0  0
    8.9876   11.9370   19.8757 O   0  0  0  0  0  0  0  0  0  0  0  0
    6.0167    8.4478   21.1089 C   0  0  0  0  0  0  0  0  0  0  0  0
   11.0002   10.8890   20.0262 C   0  0  0  0  0  0  0  0  0  0  0  0
    2.1721    7.7393   20.0315 O   0  0  0  0  0  0  0  0  0  0  0  0
    9.1107   10.3880   21.3769 N   0  0  0  0  0  0  0  0  0  0  0  0
    3.9102    9.2008   20.3124 C   0  0  0  0  0  0  0  0  0  0  0  0
   12.7292   10.9960   18.4597 C   0  0  0  0  0  0  0  0  0  0  0  0
    9.3798    6.6793   23.6625 C   0  0  0  0  0  0  0  0  0  0  0  0
   14.7425   10.0739   19.0802 O   0  0  0  0  0  0  0  0  0  0  0  0
    5.1894    9.4673   20.7118 C   0  0  0  0  0  0  0  0  0  0  0  0
    7.3773    8.8224   21.4870 C   0  0  0  0  0  0  0  0  0  0  0  0
    8.4391    6.6439   21.0235 C   0  0  0  0  0  0  0  0  0  0  0  0
    9.6494   11.1353   20.4167 C   0  0  0  0  0  0  0  0  0  0  0  0
    8.1431    7.6829   21.9046 C   0  0  0  0  0  0  0  0  0  0  0  0
    7.7796   10.1314   21.5115 N   0  0  0  0  0  0  0  0  0  0  0  0
    9.2768    5.6183   21.4437 C   0  0  0  0  0  0  0  0  0  0  0  0
    8.6315    7.7322   23.1768 C   0  0  0  0  0  0  0  0  0  0  0  0
   13.0537    9.9821   20.5781 C   0  0  0  0  0  0  0  0  0  0  0  0
   10.3850    4.6575   23.2386 O   0  0  0  0  0  0  0  0  0  0  0  0
    4.2069    6.8450   20.7994 C   0  0  0  0  0  0  0  0  0  0  0  0
    3.0726   10.1043   19.8522 O   0  0  0  0  0  0  0  0  0  0  0  0
    5.5057    7.1196   21.1155 C   0  0  0  0  0  0  0  0  0  0  0  0
    7.0367   11.0229   21.9948 O   0  0  0  0  0  0  0  0  0  0  0  0
  1  8  4  0
  1 12  4  0
  2  9  1  0
  2 11  4  0
  2 25  4  0
  3 12  4  0
  3 14  1  0
  3 23  4  0
  4 13  4  0
  4 21  4  0
  4 24  1  0
  5  8  4  0
  5 23  4  0
  6 18  2  0
  7 15  4  0
  7 16  1  0
  7 27  4  0
  8 18  1  0
 10 18  1  0
 10 20  1  0
 11 15  4  0
 11 26  1  0
 13 22  4  0
 16 19  1  0
 16 20  2  0
 17 19  4  0
 17 21  4  0
 19 22  4  0
 20 28  1  0
 25 27  4  0
M  END
$$$$

 Created by Python create_sdf_string function

 28 30  0  0  0  0  0  0  0  0999 V2000
   11.4592   11.2893   18.7941 C   0  0  0  0  0  0  0  0  0  0  0  0
    3.4202    7.9009   20.3866 C   0  0  0  0  0  0  0  0  0  0  0  0
   13.5280   10.3522   19.3586 C   0  0  0  0  0  0  0  0  0  0  0  0
    9.6923    5.6468   22.7891 C   0  0  0  0  0  0  0  0  0  0  0  0
   11.7756   10.2554   20.8841 N   0  0  0  0  0  0  0  0  0  0  0  0
    8.9876   11.9370   19.8757 O   0  0  0  0  0  0  0  0  0  0  0  0
    6.0167    8.4478   21.1089 C   0  0  0  0  0  0  0  0  0  0  0  0
   11.0002   10.8890   20.0262 C   0  0  0  0  0  0  0  0  0  0  0  0
    2.1721    7.7393   20.0315 O   0  0  0  0  0  0  0  0  0  0  0  0
    9.1107   10.3880   21.3769 N   0  0  0  0  0  0  0  0  0  0  0  0
    3.9102    9.2008   20.3124 C   0  0  0  0  0  0  0  0  0  0  0  0
   12.7292   10.9960   18.4597 C   0  0  0  0  0  0  0  0  0  0  0  0
    9.3798    6.6793   23.6625 C   0  0  0  0  0  0  0  0  0  0  0  0
   14.7425   10.0739   19.0802 O   0  0  0  0  0  0  0  0  0  0  0  0
    5.1894    9.4673   20.7118 C   0  0  0  0  0  0  0  0  0  0  0  0
    7.3773    8.8224   21.4870 C   0  0  0  0  0  0  0  0  0  0  0  0
    8.4391    6.6439   21.0235 C   0  0  0  0  0  0  0  0  0  0  0  0
    9.6494   11.1353   20.4167 C   0  0  0  0  0  0  0  0  0  0  0  0
    8.1431    7.6829   21.9046 C   0  0  0  0  0  0  0  0  0  0  0  0
    7.7796   10.1314   21.5115 N   0  0  0  0  0  0  0  0  0  0  0  0
    9.2768    5.6183   21.4437 C   0  0  0  0  0  0  0  0  0  0  0  0
    8.6315    7.7322   23.1768 C   0  0  0  0  0  0  0  0  0  0  0  0
   13.0537    9.9821   20.5781 C   0  0  0  0  0  0  0  0  0  0  0  0
   10.3850    4.6575   23.2386 O   0  0  0  0  0  0  0  0  0  0  0  0
    4.2069    6.8450   20.7994 C   0  0  0  0  0  0  0  0  0  0  0  0
    3.0726   10.1043   19.8522 O   0  0  0  0  0  0  0  0  0  0  0  0
    5.5057    7.1196   21.1155 C   0  0  0  0  0  0  0  0  0  0  0  0
    7.0367   11.0229   21.9948 O   0  0  0  0  0  0  0  0  0  0  0  0
  1  8  4  0
  1 12  4  0
  2  9  1  0
  2 11  4  0
  2 25  4  0
  3 12  4  0
  3 14  1  0
  3 23  4  0
  4 13  4  0
  4 21  4  0
  4 24  1  0
  5  8  4  0
  5 23  4  0
  6 18  2  0
  7 15  4  0
  7 16  1  0
  7 27  4  0
  8 18  1  0
 10 18  1  0
 10 20  1  0
 11 15  4  0
 11 26  1  0
 13 22  4  0
 16 19  1  0
 16 20  2  0
 17 19  4  0
 17 21  4  0
 19 22  4  0
 20 28  1  0
 25 27  4  0
M  END
$$$$

 Created by Python create_sdf_string function

 28 30  0  0  0  0  0  0  0  0999 V2000
   11.4592   11.2893   18.7941 C   0  0  0  0  0  0  0  0  0  0  0  0
    3.4202    7.9009   20.3866 C   0  0  0  0  0  0  0  0  0  0  0  0
   13.5280   10.3522   19.3586 C   0  0  0  0  0  0  0  0  0  0  0  0
    9.6923    5.6468   22.7891 C   0  0  0  0  0  0  0  0  0  0  0  0
   11.7756   10.2554   20.8841 N   0  0  0  0  0  0  0  0  0  0  0  0
    8.9876   11.9370   19.8757 O   0  0  0  0  0  0  0  0  0  0  0  0
    6.0167    8.4478   21.1089 C   0  0  0  0  0  0  0  0  0  0  0  0
   11.0002   10.8890   20.0262 C   0  0  0  0  0  0  0  0  0  0  0  0
    2.1721    7.7393   20.0315 O   0  0  0  0  0  0  0  0  0  0  0  0
    9.1107   10.3880   21.3769 N   0  0  0  0  0  0  0  0  0  0  0  0
    3.9102    9.2008   20.3124 C   0  0  0  0  0  0  0  0  0  0  0  0
   12.7292   10.9960   18.4597 C   0  0  0  0  0  0  0  0  0  0  0  0
    9.3798    6.6793   23.6625 C   0  0  0  0  0  0  0  0  0  0  0  0
   14.7425   10.0739   19.0802 O   0  0  0  0  0  0  0  0  0  0  0  0
    5.1894    9.4673   20.7118 C   0  0  0  0  0  0  0  0  0  0  0  0
    7.3773    8.8224   21.4870 C   0  0  0  0  0  0  0  0  0  0  0  0
    8.4391    6.6439   21.0235 C   0  0  0  0  0  0  0  0  0  0  0  0
    9.6494   11.1353   20.4167 C   0  0  0  0  0  0  0  0  0  0  0  0
    8.1431    7.6829   21.9046 C   0  0  0  0  0  0  0  0  0  0  0  0
    7.7796   10.1314   21.5115 N   0  0  0  0  0  0  0  0  0  0  0  0
    9.2768    5.6183   21.4437 C   0  0  0  0  0  0  0  0  0  0  0  0
    8.6315    7.7322   23.1768 C   0  0  0  0  0  0  0  0  0  0  0  0
   13.0537    9.9821   20.5781 C   0  0  0  0  0  0  0  0  0  0  0  0
   10.3850    4.6575   23.2386 O   0  0  0  0  0  0  0  0  0  0  0  0
    4.2069    6.8450   20.7994 C   0  0  0  0  0  0  0  0  0  0  0  0
    3.0726   10.1043   19.8522 O   0  0  0  0  0  0  0  0  0  0  0  0
    5.5057    7.1196   21.1155 C   0  0  0  0  0  0  0  0  0  0  0  0
    7.0367   11.0229   21.9948 O   0  0  0  0  0  0  0  0  0  0  0  0
  1  8  4  0
  1 12  4  0
  2  9  1  0
  2 11  4  0
  2 25  4  0
  3 12  4  0
  3 14  1  0
  3 23  4  0
  4 13  4  0
  4 21  4  0
  4 24  1  0
  5  8  4  0
  5 23  4  0
  6 18  2  0
  7 15  4  0
  7 16  1  0
  7 27  4  0
  8 18  1  0
 10 18  1  0
 10 20  1  0
 11 15  4  0
 11 26  1  0
 13 22  4  0
 16 19  1  0
 16 20  2  0
 17 19  4  0
 17 21  4  0
 19 22  4  0
 20 28  1  0
 25 27  4  0
M  END
$$$$

 Created by Python create_sdf_string function

 28 30  0  0  0  0  0  0  0  0999 V2000
   11.4592   11.2893   18.7941 C   0  0  0  0  0  0  0  0  0  0  0  0
    3.4202    7.9009   20.3866 C   0  0  0  0  0  0  0  0  0  0  0  0
   13.5280   10.3522   19.3586 C   0  0  0  0  0  0  0  0  0  0  0  0
    9.6923    5.6468   22.7891 C   0  0  0  0  0  0  0  0  0  0  0  0
   11.7756   10.2554   20.8841 N   0  0  0  0  0  0  0  0  0  0  0  0
    8.9876   11.9370   19.8757 O   0  0  0  0  0  0  0  0  0  0  0  0
    6.0167    8.4478   21.1089 C   0  0  0  0  0  0  0  0  0  0  0  0
   11.0002   10.8890   20.0262 C   0  0  0  0  0  0  0  0  0  0  0  0
    2.1721    7.7393   20.0315 O   0  0  0  0  0  0  0  0  0  0  0  0
    9.1107   10.3880   21.3769 N   0  0  0  0  0  0  0  0  0  0  0  0
    3.9102    9.2008   20.3124 C   0  0  0  0  0  0  0  0  0  0  0  0
   12.7292   10.9960   18.4597 C   0  0  0  0  0  0  0  0  0  0  0  0
    9.3798    6.6793   23.6625 C   0  0  0  0  0  0  0  0  0  0  0  0
   14.7425   10.0739   19.0802 O   0  0  0  0  0  0  0  0  0  0  0  0
    5.1894    9.4673   20.7118 C   0  0  0  0  0  0  0  0  0  0  0  0
    7.3773    8.8224   21.4870 C   0  0  0  0  0  0  0  0  0  0  0  0
    8.4391    6.6439   21.0235 C   0  0  0  0  0  0  0  0  0  0  0  0
    9.6494   11.1353   20.4167 C   0  0  0  0  0  0  0  0  0  0  0  0
    8.1431    7.6829   21.9046 C   0  0  0  0  0  0  0  0  0  0  0  0
    7.7796   10.1314   21.5115 N   0  0  0  0  0  0  0  0  0  0  0  0
    9.2768    5.6183   21.4437 C   0  0  0  0  0  0  0  0  0  0  0  0
    8.6315    7.7322   23.1768 C   0  0  0  0  0  0  0  0  0  0  0  0
   13.0537    9.9821   20.5781 C   0  0  0  0  0  0  0  0  0  0  0  0
   10.3850    4.6575   23.2386 O   0  0  0  0  0  0  0  0  0  0  0  0
    4.2069    6.8450   20.7994 C   0  0  0  0  0  0  0  0  0  0  0  0
    3.0726   10.1043   19.8522 O   0  0  0  0  0  0  0  0  0  0  0  0
    5.5057    7.1196   21.1155 C   0  0  0  0  0  0  0  0  0  0  0  0
    7.0367   11.0229   21.9948 O   0  0  0  0  0  0  0  0  0  0  0  0
  1  8  4  0
  1 12  4  0
  2  9  1  0
  2 11  4  0
  2 25  4  0
  3 12  4  0
  3 14  1  0
  3 23  4  0
  4 13  4  0
  4 21  4  0
  4 24  1  0
  5  8  4  0
  5 23  4  0
  6 18  2  0
  7 15  4  0
  7 16  1  0
  7 27  4  0
  8 18  1  0
 10 18  1  0
 10 20  1  0
 11 15  4  0
 11 26  1  0
 13 22  4  0
 16 19  1  0
 16 20  2  0
 17 19  4  0
 17 21  4  0
 19 22  4  0
 20 28  1  0
 25 27  4  0
M  END
$$$$

 Created by Python create_sdf_string function

 28 30  0  0  0  0  0  0  0  0999 V2000
   11.4592   11.2893   18.7941 C   0  0  0  0  0  0  0  0  0  0  0  0
    3.4202    7.9009   20.3866 C   0  0  0  0  0  0  0  0  0  0  0  0
   13.5280   10.3522   19.3586 C   0  0  0  0  0  0  0  0  0  0  0  0
    9.6923    5.6468   22.7891 C   0  0  0  0  0  0  0  0  0  0  0  0
   11.7756   10.2554   20.8841 N   0  0  0  0  0  0  0  0  0  0  0  0
    8.9876   11.9370   19.8757 O   0  0  0  0  0  0  0  0  0  0  0  0
    6.0167    8.4478   21.1089 C   0  0  0  0  0  0  0  0  0  0  0  0
   11.0002   10.8890   20.0262 C   0  0  0  0  0  0  0  0  0  0  0  0
    2.1721    7.7393   20.0315 O   0  0  0  0  0  0  0  0  0  0  0  0
    9.1107   10.3880   21.3769 N   0  0  0  0  0  0  0  0  0  0  0  0
    3.9102    9.2008   20.3124 C   0  0  0  0  0  0  0  0  0  0  0  0
   12.7292   10.9960   18.4597 C   0  0  0  0  0  0  0  0  0  0  0  0
    9.3798    6.6793   23.6625 C   0  0  0  0  0  0  0  0  0  0  0  0
   14.7425   10.0739   19.0802 O   0  0  0  0  0  0  0  0  0  0  0  0
    5.1894    9.4673   20.7118 C   0  0  0  0  0  0  0  0  0  0  0  0
    7.3773    8.8224   21.4870 C   0  0  0  0  0  0  0  0  0  0  0  0
    8.4391    6.6439   21.0235 C   0  0  0  0  0  0  0  0  0  0  0  0
    9.6494   11.1353   20.4167 C   0  0  0  0  0  0  0  0  0  0  0  0
    8.1431    7.6829   21.9046 C   0  0  0  0  0  0  0  0  0  0  0  0
    7.7796   10.1314   21.5115 N   0  0  0  0  0  0  0  0  0  0  0  0
    9.2768    5.6183   21.4437 C   0  0  0  0  0  0  0  0  0  0  0  0
    8.6315    7.7322   23.1768 C   0  0  0  0  0  0  0  0  0  0  0  0
   13.0537    9.9821   20.5781 C   0  0  0  0  0  0  0  0  0  0  0  0
   10.3850    4.6575   23.2386 O   0  0  0  0  0  0  0  0  0  0  0  0
    4.2069    6.8450   20.7994 C   0  0  0  0  0  0  0  0  0  0  0  0
    3.0726   10.1043   19.8522 O   0  0  0  0  0  0  0  0  0  0  0  0
    5.5057    7.1196   21.1155 C   0  0  0  0  0  0  0  0  0  0  0  0
    7.0367   11.0229   21.9948 O   0  0  0  0  0  0  0  0  0  0  0  0
  1  8  4  0
  1 12  4  0
  2  9  1  0
  2 11  4  0
  2 25  4  0
  3 12  4  0
  3 14  1  0
  3 23  4  0
  4 13  4  0
  4 21  4  0
  4 24  1  0
  5  8  4  0
  5 23  4  0
  6 18  2  0
  7 15  4  0
  7 16  1  0
  7 27  4  0
  8 18  1  0
 10 18  1  0
 10 20  1  0
 11 15  4  0
 11 26  1  0
 13 22  4  0
 16 19  1  0
 16 20  2  0
 17 19  4  0
 17 21  4  0
 19 22  4  0
 20 28  1  0
 25 27  4  0
M  END
$$$$

 Created by Python create_sdf_string function

 28 30  0  0  0  0  0  0  0  0999 V2000
   11.4592   11.2893   18.7941 C   0  0  0  0  0  0  0  0  0  0  0  0
    3.4202    7.9009   20.3866 C   0  0  0  0  0  0  0  0  0  0  0  0
   13.5280   10.3522   19.3586 C   0  0  0  0  0  0  0  0  0  0  0  0
    9.6923    5.6468   22.7891 C   0  0  0  0  0  0  0  0  0  0  0  0
   11.7756   10.2554   20.8841 N   0  0  0  0  0  0  0  0  0  0  0  0
    8.9876   11.9370   19.8757 O   0  0  0  0  0  0  0  0  0  0  0  0
    6.0167    8.4478   21.1089 C   0  0  0  0  0  0  0  0  0  0  0  0
   11.0002   10.8890   20.0262 C   0  0  0  0  0  0  0  0  0  0  0  0
    2.1721    7.7393   20.0315 O   0  0  0  0  0  0  0  0  0  0  0  0
    9.1107   10.3880   21.3769 N   0  0  0  0  0  0  0  0  0  0  0  0
    3.9102    9.2008   20.3124 C   0  0  0  0  0  0  0  0  0  0  0  0
   12.7292   10.9960   18.4597 C   0  0  0  0  0  0  0  0  0  0  0  0
    9.3798    6.6793   23.6625 C   0  0  0  0  0  0  0  0  0  0  0  0
   14.7425   10.0739   19.0802 O   0  0  0  0  0  0  0  0  0  0  0  0
    5.1894    9.4673   20.7118 C   0  0  0  0  0  0  0  0  0  0  0  0
    7.3773    8.8224   21.4870 C   0  0  0  0  0  0  0  0  0  0  0  0
    8.4391    6.6439   21.0235 C   0  0  0  0  0  0  0  0  0  0  0  0
    9.6494   11.1353   20.4167 C   0  0  0  0  0  0  0  0  0  0  0  0
    8.1431    7.6829   21.9046 C   0  0  0  0  0  0  0  0  0  0  0  0
    7.7796   10.1314   21.5115 N   0  0  0  0  0  0  0  0  0  0  0  0
    9.2768    5.6183   21.4437 C   0  0  0  0  0  0  0  0  0  0  0  0
    8.6315    7.7322   23.1768 C   0  0  0  0  0  0  0  0  0  0  0  0
   13.0537    9.9821   20.5781 C   0  0  0  0  0  0  0  0  0  0  0  0
   10.3850    4.6575   23.2386 O   0  0  0  0  0  0  0  0  0  0  0  0
    4.2069    6.8450   20.7994 C   0  0  0  0  0  0  0  0  0  0  0  0
    3.0726   10.1043   19.8522 O   0  0  0  0  0  0  0  0  0  0  0  0
    5.5057    7.1196   21.1155 C   0  0  0  0  0  0  0  0  0  0  0  0
    7.0367   11.0229   21.9948 O   0  0  0  0  0  0  0  0  0  0  0  0
  1  8  4  0
  1 12  4  0
  2  9  1  0
  2 11  4  0
  2 25  4  0
  3 12  4  0
  3 14  1  0
  3 23  4  0
  4 13  4  0
  4 21  4  0
  4 24  1  0
  5  8  4  0
  5 23  4  0
  6 18  2  0
  7 15  4  0
  7 16  1  0
  7 27  4  0
  8 18  1  0
 10 18  1  0
 10 20  1  0
 11 15  4  0
 11 26  1  0
 13 22  4  0
 16 19  1  0
 16 20  2  0
 17 19  4  0
 17 21  4  0
 19 22  4  0
 20 28  1  0
 25 27  4  0
M  END
$$$$

 Created by Python create_sdf_string function

 28 30  0  0  0  0  0  0  0  0999 V2000
   11.4592   11.2893   18.7941 C   0  0  0  0  0  0  0  0  0  0  0  0
    3.4202    7.9009   20.3866 C   0  0  0  0  0  0  0  0  0  0  0  0
   13.5280   10.3522   19.3586 C   0  0  0  0  0  0  0  0  0  0  0  0
    9.6923    5.6468   22.7891 C   0  0  0  0  0  0  0  0  0  0  0  0
   11.7756   10.2554   20.8841 N   0  0  0  0  0  0  0  0  0  0  0  0
    8.9876   11.9370   19.8757 O   0  0  0  0  0  0  0  0  0  0  0  0
    6.0167    8.4478   21.1089 C   0  0  0  0  0  0  0  0  0  0  0  0
   11.0002   10.8890   20.0262 C   0  0  0  0  0  0  0  0  0  0  0  0
    2.1721    7.7393   20.0315 O   0  0  0  0  0  0  0  0  0  0  0  0
    9.1107   10.3880   21.3769 N   0  0  0  0  0  0  0  0  0  0  0  0
    3.9102    9.2008   20.3124 C   0  0  0  0  0  0  0  0  0  0  0  0
   12.7292   10.9960   18.4597 C   0  0  0  0  0  0  0  0  0  0  0  0
    9.3798    6.6793   23.6625 C   0  0  0  0  0  0  0  0  0  0  0  0
   14.7425   10.0739   19.0802 O   0  0  0  0  0  0  0  0  0  0  0  0
    5.1894    9.4673   20.7118 C   0  0  0  0  0  0  0  0  0  0  0  0
    7.3773    8.8224   21.4870 C   0  0  0  0  0  0  0  0  0  0  0  0
    8.4391    6.6439   21.0235 C   0  0  0  0  0  0  0  0  0  0  0  0
    9.6494   11.1353   20.4167 C   0  0  0  0  0  0  0  0  0  0  0  0
    8.1431    7.6829   21.9046 C   0  0  0  0  0  0  0  0  0  0  0  0
    7.7796   10.1314   21.5115 N   0  0  0  0  0  0  0  0  0  0  0  0
    9.2768    5.6183   21.4437 C   0  0  0  0  0  0  0  0  0  0  0  0
    8.6315    7.7322   23.1768 C   0  0  0  0  0  0  0  0  0  0  0  0
   13.0537    9.9821   20.5781 C   0  0  0  0  0  0  0  0  0  0  0  0
   10.3850    4.6575   23.2386 O   0  0  0  0  0  0  0  0  0  0  0  0
    4.2069    6.8450   20.7994 C   0  0  0  0  0  0  0  0  0  0  0  0
    3.0726   10.1043   19.8522 O   0  0  0  0  0  0  0  0  0  0  0  0
    5.5057    7.1196   21.1155 C   0  0  0  0  0  0  0  0  0  0  0  0
    7.0367   11.0229   21.9948 O   0  0  0  0  0  0  0  0  0  0  0  0
  1  8  4  0
  1 12  4  0
  2  9  1  0
  2 11  4  0
  2 25  4  0
  3 12  4  0
  3 14  1  0
  3 23  4  0
  4 13  4  0
  4 21  4  0
  4 24  1  0
  5  8  4  0
  5 23  4  0
  6 18  2  0
  7 15  4  0
  7 16  1  0
  7 27  4  0
  8 18  1  0
 10 18  1  0
 10 20  1  0
 11 15  4  0
 11 26  1  0
 13 22  4  0
 16 19  1  0
 16 20  2  0
 17 19  4  0
 17 21  4  0
 19 22  4  0
 20 28  1  0
 25 27  4  0
M  END
$$$$

 Created by Python create_sdf_string function

 28 30  0  0  0  0  0  0  0  0999 V2000
   11.4592   11.2893   18.7941 C   0  0  0  0  0  0  0  0  0  0  0  0
    3.4202    7.9009   20.3866 C   0  0  0  0  0  0  0  0  0  0  0  0
   13.5280   10.3522   19.3586 C   0  0  0  0  0  0  0  0  0  0  0  0
    9.6923    5.6468   22.7891 C   0  0  0  0  0  0  0  0  0  0  0  0
   11.7756   10.2554   20.8841 N   0  0  0  0  0  0  0  0  0  0  0  0
    8.9876   11.9370   19.8757 O   0  0  0  0  0  0  0  0  0  0  0  0
    6.0167    8.4478   21.1089 C   0  0  0  0  0  0  0  0  0  0  0  0
   11.0002   10.8890   20.0262 C   0  0  0  0  0  0  0  0  0  0  0  0
    2.1721    7.7393   20.0315 O   0  0  0  0  0  0  0  0  0  0  0  0
    9.1107   10.3880   21.3769 N   0  0  0  0  0  0  0  0  0  0  0  0
    3.9102    9.2008   20.3124 C   0  0  0  0  0  0  0  0  0  0  0  0
   12.7292   10.9960   18.4597 C   0  0  0  0  0  0  0  0  0  0  0  0
    9.3798    6.6793   23.6625 C   0  0  0  0  0  0  0  0  0  0  0  0
   14.7425   10.0739   19.0802 O   0  0  0  0  0  0  0  0  0  0  0  0
    5.1894    9.4673   20.7118 C   0  0  0  0  0  0  0  0  0  0  0  0
    7.3773    8.8224   21.4870 C   0  0  0  0  0  0  0  0  0  0  0  0
    8.4391    6.6439   21.0235 C   0  0  0  0  0  0  0  0  0  0  0  0
    9.6494   11.1353   20.4167 C   0  0  0  0  0  0  0  0  0  0  0  0
    8.1431    7.6829   21.9046 C   0  0  0  0  0  0  0  0  0  0  0  0
    7.7796   10.1314   21.5115 N   0  0  0  0  0  0  0  0  0  0  0  0
    9.2768    5.6183   21.4437 C   0  0  0  0  0  0  0  0  0  0  0  0
    8.6315    7.7322   23.1768 C   0  0  0  0  0  0  0  0  0  0  0  0
   13.0537    9.9821   20.5781 C   0  0  0  0  0  0  0  0  0  0  0  0
   10.3850    4.6575   23.2386 O   0  0  0  0  0  0  0  0  0  0  0  0
    4.2069    6.8450   20.7994 C   0  0  0  0  0  0  0  0  0  0  0  0
    3.0726   10.1043   19.8522 O   0  0  0  0  0  0  0  0  0  0  0  0
    5.5057    7.1196   21.1155 C   0  0  0  0  0  0  0  0  0  0  0  0
    7.0367   11.0229   21.9948 O   0  0  0  0  0  0  0  0  0  0  0  0
  1  8  4  0
  1 12  4  0
  2  9  1  0
  2 11  4  0
  2 25  4  0
  3 12  4  0
  3 14  1  0
  3 23  4  0
  4 13  4  0
  4 21  4  0
  4 24  1  0
  5  8  4  0
  5 23  4  0
  6 18  2  0
  7 15  4  0
  7 16  1  0
  7 27  4  0
  8 18  1  0
 10 18  1  0
 10 20  1  0
 11 15  4  0
 11 26  1  0
 13 22  4  0
 16 19  1  0
 16 20  2  0
 17 19  4  0
 17 21  4  0
 19 22  4  0
 20 28  1  0
 25 27  4  0
M  END
$$$$

 Created by Python create_sdf_string function

 28 30  0  0  0  0  0  0  0  0999 V2000
   11.4592   11.2893   18.7941 C   0  0  0  0  0  0  0  0  0  0  0  0
    3.4202    7.9009   20.3866 C   0  0  0  0  0  0  0  0  0  0  0  0
   13.5280   10.3522   19.3586 C   0  0  0  0  0  0  0  0  0  0  0  0
    9.6923    5.6468   22.7891 C   0  0  0  0  0  0  0  0  0  0  0  0
   11.7756   10.2554   20.8841 N   0  0  0  0  0  0  0  0  0  0  0  0
    8.9876   11.9370   19.8757 O   0  0  0  0  0  0  0  0  0  0  0  0
    6.0167    8.4478   21.1089 C   0  0  0  0  0  0  0  0  0  0  0  0
   11.0002   10.8890   20.0262 C   0  0  0  0  0  0  0  0  0  0  0  0
    2.1721    7.7393   20.0315 O   0  0  0  0  0  0  0  0  0  0  0  0
    9.1107   10.3880   21.3769 N   0  0  0  0  0  0  0  0  0  0  0  0
    3.9102    9.2008   20.3124 C   0  0  0  0  0  0  0  0  0  0  0  0
   12.7292   10.9960   18.4597 C   0  0  0  0  0  0  0  0  0  0  0  0
    9.3798    6.6793   23.6625 C   0  0  0  0  0  0  0  0  0  0  0  0
   14.7425   10.0739   19.0802 O   0  0  0  0  0  0  0  0  0  0  0  0
    5.1894    9.4673   20.7118 C   0  0  0  0  0  0  0  0  0  0  0  0
    7.3773    8.8224   21.4870 C   0  0  0  0  0  0  0  0  0  0  0  0
    8.4391    6.6439   21.0235 C   0  0  0  0  0  0  0  0  0  0  0  0
    9.6494   11.1353   20.4167 C   0  0  0  0  0  0  0  0  0  0  0  0
    8.1431    7.6829   21.9046 C   0  0  0  0  0  0  0  0  0  0  0  0
    7.7796   10.1314   21.5115 N   0  0  0  0  0  0  0  0  0  0  0  0
    9.2768    5.6183   21.4437 C   0  0  0  0  0  0  0  0  0  0  0  0
    8.6315    7.7322   23.1768 C   0  0  0  0  0  0  0  0  0  0  0  0
   13.0537    9.9821   20.5781 C   0  0  0  0  0  0  0  0  0  0  0  0
   10.3850    4.6575   23.2386 O   0  0  0  0  0  0  0  0  0  0  0  0
    4.2069    6.8450   20.7994 C   0  0  0  0  0  0  0  0  0  0  0  0
    3.0726   10.1043   19.8522 O   0  0  0  0  0  0  0  0  0  0  0  0
    5.5057    7.1196   21.1155 C   0  0  0  0  0  0  0  0  0  0  0  0
    7.0367   11.0229   21.9948 O   0  0  0  0  0  0  0  0  0  0  0  0
  1  8  4  0
  1 12  4  0
  2  9  1  0
  2 11  4  0
  2 25  4  0
  3 12  4  0
  3 14  1  0
  3 23  4  0
  4 13  4  0
  4 21  4  0
  4 24  1  0
  5  8  4  0
  5 23  4  0
  6 18  2  0
  7 15  4  0
  7 16  1  0
  7 27  4  0
  8 18  1  0
 10 18  1  0
 10 20  1  0
 11 15  4  0
 11 26  1  0
 13 22  4  0
 16 19  1  0
 16 20  2  0
 17 19  4  0
 17 21  4  0
 19 22  4  0
 20 28  1  0
 25 27  4  0
M  END
$$$$

 Created by Python create_sdf_string function

 28 30  0  0  0  0  0  0  0  0999 V2000
   11.4592   11.2893   18.7941 C   0  0  0  0  0  0  0  0  0  0  0  0
    3.4202    7.9009   20.3866 C   0  0  0  0  0  0  0  0  0  0  0  0
   13.5280   10.3522   19.3586 C   0  0  0  0  0  0  0  0  0  0  0  0
    9.6923    5.6468   22.7891 C   0  0  0  0  0  0  0  0  0  0  0  0
   11.7756   10.2554   20.8841 N   0  0  0  0  0  0  0  0  0  0  0  0
    8.9876   11.9370   19.8757 O   0  0  0  0  0  0  0  0  0  0  0  0
    6.0167    8.4478   21.1089 C   0  0  0  0  0  0  0  0  0  0  0  0
   11.0002   10.8890   20.0262 C   0  0  0  0  0  0  0  0  0  0  0  0
    2.1721    7.7393   20.0315 O   0  0  0  0  0  0  0  0  0  0  0  0
    9.1107   10.3880   21.3769 N   0  0  0  0  0  0  0  0  0  0  0  0
    3.9102    9.2008   20.3124 C   0  0  0  0  0  0  0  0  0  0  0  0
   12.7292   10.9960   18.4597 C   0  0  0  0  0  0  0  0  0  0  0  0
    9.3798    6.6793   23.6625 C   0  0  0  0  0  0  0  0  0  0  0  0
   14.7425   10.0739   19.0802 O   0  0  0  0  0  0  0  0  0  0  0  0
    5.1894    9.4673   20.7118 C   0  0  0  0  0  0  0  0  0  0  0  0
    7.3773    8.8224   21.4870 C   0  0  0  0  0  0  0  0  0  0  0  0
    8.4391    6.6439   21.0235 C   0  0  0  0  0  0  0  0  0  0  0  0
    9.6494   11.1353   20.4167 C   0  0  0  0  0  0  0  0  0  0  0  0
    8.1431    7.6829   21.9046 C   0  0  0  0  0  0  0  0  0  0  0  0
    7.7796   10.1314   21.5115 N   0  0  0  0  0  0  0  0  0  0  0  0
    9.2768    5.6183   21.4437 C   0  0  0  0  0  0  0  0  0  0  0  0
    8.6315    7.7322   23.1768 C   0  0  0  0  0  0  0  0  0  0  0  0
   13.0537    9.9821   20.5781 C   0  0  0  0  0  0  0  0  0  0  0  0
   10.3850    4.6575   23.2386 O   0  0  0  0  0  0  0  0  0  0  0  0
    4.2069    6.8450   20.7994 C   0  0  0  0  0  0  0  0  0  0  0  0
    3.0726   10.1043   19.8522 O   0  0  0  0  0  0  0  0  0  0  0  0
    5.5057    7.1196   21.1155 C   0  0  0  0  0  0  0  0  0  0  0  0
    7.0367   11.0229   21.9948 O   0  0  0  0  0  0  0  0  0  0  0  0
  1  8  4  0
  1 12  4  0
  2  9  1  0
  2 11  4  0
  2 25  4  0
  3 12  4  0
  3 14  1  0
  3 23  4  0
  4 13  4  0
  4 21  4  0
  4 24  1  0
  5  8  4  0
  5 23  4  0
  6 18  2  0
  7 15  4  0
  7 16  1  0
  7 27  4  0
  8 18  1  0
 10 18  1  0
 10 20  1  0
 11 15  4  0
 11 26  1  0
 13 22  4  0
 16 19  1  0
 16 20  2  0
 17 19  4  0
 17 21  4  0
 19 22  4  0
 20 28  1  0
 25 27  4  0
M  END
$$$$

 Created by Python create_sdf_string function

 28 30  0  0  0  0  0  0  0  0999 V2000
   11.4592   11.2893   18.7941 C   0  0  0  0  0  0  0  0  0  0  0  0
    3.4202    7.9009   20.3866 C   0  0  0  0  0  0  0  0  0  0  0  0
   13.5280   10.3522   19.3586 C   0  0  0  0  0  0  0  0  0  0  0  0
    9.6923    5.6468   22.7891 C   0  0  0  0  0  0  0  0  0  0  0  0
   11.7756   10.2554   20.8841 N   0  0  0  0  0  0  0  0  0  0  0  0
    8.9876   11.9370   19.8757 O   0  0  0  0  0  0  0  0  0  0  0  0
    6.0167    8.4478   21.1089 C   0  0  0  0  0  0  0  0  0  0  0  0
   11.0002   10.8890   20.0262 C   0  0  0  0  0  0  0  0  0  0  0  0
    2.1721    7.7393   20.0315 O   0  0  0  0  0  0  0  0  0  0  0  0
    9.1107   10.3880   21.3769 N   0  0  0  0  0  0  0  0  0  0  0  0
    3.9102    9.2008   20.3124 C   0  0  0  0  0  0  0  0  0  0  0  0
   12.7292   10.9960   18.4597 C   0  0  0  0  0  0  0  0  0  0  0  0
    9.3798    6.6793   23.6625 C   0  0  0  0  0  0  0  0  0  0  0  0
   14.7425   10.0739   19.0802 O   0  0  0  0  0  0  0  0  0  0  0  0
    5.1894    9.4673   20.7118 C   0  0  0  0  0  0  0  0  0  0  0  0
    7.3773    8.8224   21.4870 C   0  0  0  0  0  0  0  0  0  0  0  0
    8.4391    6.6439   21.0235 C   0  0  0  0  0  0  0  0  0  0  0  0
    9.6494   11.1353   20.4167 C   0  0  0  0  0  0  0  0  0  0  0  0
    8.1431    7.6829   21.9046 C   0  0  0  0  0  0  0  0  0  0  0  0
    7.7796   10.1314   21.5115 N   0  0  0  0  0  0  0  0  0  0  0  0
    9.2768    5.6183   21.4437 C   0  0  0  0  0  0  0  0  0  0  0  0
    8.6315    7.7322   23.1768 C   0  0  0  0  0  0  0  0  0  0  0  0
   13.0537    9.9821   20.5781 C   0  0  0  0  0  0  0  0  0  0  0  0
   10.3850    4.6575   23.2386 O   0  0  0  0  0  0  0  0  0  0  0  0
    4.2069    6.8450   20.7994 C   0  0  0  0  0  0  0  0  0  0  0  0
    3.0726   10.1043   19.8522 O   0  0  0  0  0  0  0  0  0  0  0  0
    5.5057    7.1196   21.1155 C   0  0  0  0  0  0  0  0  0  0  0  0
    7.0367   11.0229   21.9948 O   0  0  0  0  0  0  0  0  0  0  0  0
  1  8  4  0
  1 12  4  0
  2  9  1  0
  2 11  4  0
  2 25  4  0
  3 12  4  0
  3 14  1  0
  3 23  4  0
  4 13  4  0
  4 21  4  0
  4 24  1  0
  5  8  4  0
  5 23  4  0
  6 18  2  0
  7 15  4  0
  7 16  1  0
  7 27  4  0
  8 18  1  0
 10 18  1  0
 10 20  1  0
 11 15  4  0
 11 26  1  0
 13 22  4  0
 16 19  1  0
 16 20  2  0
 17 19  4  0
 17 21  4  0
 19 22  4  0
 20 28  1  0
 25 27  4  0
M  END
$$$$

 Created by Python create_sdf_string function

 28 30  0  0  0  0  0  0  0  0999 V2000
   11.4592   11.2893   18.7941 C   0  0  0  0  0  0  0  0  0  0  0  0
    3.4202    7.9009   20.3866 C   0  0  0  0  0  0  0  0  0  0  0  0
   13.5280   10.3522   19.3586 C   0  0  0  0  0  0  0  0  0  0  0  0
    9.6923    5.6468   22.7891 C   0  0  0  0  0  0  0  0  0  0  0  0
   11.7756   10.2554   20.8841 N   0  0  0  0  0  0  0  0  0  0  0  0
    8.9876   11.9370   19.8757 O   0  0  0  0  0  0  0  0  0  0  0  0
    6.0167    8.4478   21.1089 C   0  0  0  0  0  0  0  0  0  0  0  0
   11.0002   10.8890   20.0262 C   0  0  0  0  0  0  0  0  0  0  0  0
    2.1721    7.7393   20.0315 O   0  0  0  0  0  0  0  0  0  0  0  0
    9.1107   10.3880   21.3769 N   0  0  0  0  0  0  0  0  0  0  0  0
    3.9102    9.2008   20.3124 C   0  0  0  0  0  0  0  0  0  0  0  0
   12.7292   10.9960   18.4597 C   0  0  0  0  0  0  0  0  0  0  0  0
    9.3798    6.6793   23.6625 C   0  0  0  0  0  0  0  0  0  0  0  0
   14.7425   10.0739   19.0802 O   0  0  0  0  0  0  0  0  0  0  0  0
    5.1894    9.4673   20.7118 C   0  0  0  0  0  0  0  0  0  0  0  0
    7.3773    8.8224   21.4870 C   0  0  0  0  0  0  0  0  0  0  0  0
    8.4391    6.6439   21.0235 C   0  0  0  0  0  0  0  0  0  0  0  0
    9.6494   11.1353   20.4167 C   0  0  0  0  0  0  0  0  0  0  0  0
    8.1431    7.6829   21.9046 C   0  0  0  0  0  0  0  0  0  0  0  0
    7.7796   10.1314   21.5115 N   0  0  0  0  0  0  0  0  0  0  0  0
    9.2768    5.6183   21.4437 C   0  0  0  0  0  0  0  0  0  0  0  0
    8.6315    7.7322   23.1768 C   0  0  0  0  0  0  0  0  0  0  0  0
   13.0537    9.9821   20.5781 C   0  0  0  0  0  0  0  0  0  0  0  0
   10.3850    4.6575   23.2386 O   0  0  0  0  0  0  0  0  0  0  0  0
    4.2069    6.8450   20.7994 C   0  0  0  0  0  0  0  0  0  0  0  0
    3.0726   10.1043   19.8522 O   0  0  0  0  0  0  0  0  0  0  0  0
    5.5057    7.1196   21.1155 C   0  0  0  0  0  0  0  0  0  0  0  0
    7.0367   11.0229   21.9948 O   0  0  0  0  0  0  0  0  0  0  0  0
  1  8  4  0
  1 12  4  0
  2  9  1  0
  2 11  4  0
  2 25  4  0
  3 12  4  0
  3 14  1  0
  3 23  4  0
  4 13  4  0
  4 21  4  0
  4 24  1  0
  5  8  4  0
  5 23  4  0
  6 18  2  0
  7 15  4  0
  7 16  1  0
  7 27  4  0
  8 18  1  0
 10 18  1  0
 10 20  1  0
 11 15  4  0
 11 26  1  0
 13 22  4  0
 16 19  1  0
 16 20  2  0
 17 19  4  0
 17 21  4  0
 19 22  4  0
 20 28  1  0
 25 27  4  0
M  END
$$$$

 Created by Python create_sdf_string function

 28 30  0  0  0  0  0  0  0  0999 V2000
   11.4592   11.2893   18.7941 C   0  0  0  0  0  0  0  0  0  0  0  0
    3.4202    7.9009   20.3866 C   0  0  0  0  0  0  0  0  0  0  0  0
   13.5280   10.3522   19.3586 C   0  0  0  0  0  0  0  0  0  0  0  0
    9.6923    5.6468   22.7891 C   0  0  0  0  0  0  0  0  0  0  0  0
   11.7756   10.2554   20.8841 N   0  0  0  0  0  0  0  0  0  0  0  0
    8.9876   11.9370   19.8757 O   0  0  0  0  0  0  0  0  0  0  0  0
    6.0167    8.4478   21.1089 C   0  0  0  0  0  0  0  0  0  0  0  0
   11.0002   10.8890   20.0262 C   0  0  0  0  0  0  0  0  0  0  0  0
    2.1721    7.7393   20.0315 O   0  0  0  0  0  0  0  0  0  0  0  0
    9.1107   10.3880   21.3769 N   0  0  0  0  0  0  0  0  0  0  0  0
    3.9102    9.2008   20.3124 C   0  0  0  0  0  0  0  0  0  0  0  0
   12.7292   10.9960   18.4597 C   0  0  0  0  0  0  0  0  0  0  0  0
    9.3798    6.6793   23.6625 C   0  0  0  0  0  0  0  0  0  0  0  0
   14.7425   10.0739   19.0802 O   0  0  0  0  0  0  0  0  0  0  0  0
    5.1894    9.4673   20.7118 C   0  0  0  0  0  0  0  0  0  0  0  0
    7.3773    8.8224   21.4870 C   0  0  0  0  0  0  0  0  0  0  0  0
    8.4391    6.6439   21.0235 C   0  0  0  0  0  0  0  0  0  0  0  0
    9.6494   11.1353   20.4167 C   0  0  0  0  0  0  0  0  0  0  0  0
    8.1431    7.6829   21.9046 C   0  0  0  0  0  0  0  0  0  0  0  0
    7.7796   10.1314   21.5115 N   0  0  0  0  0  0  0  0  0  0  0  0
    9.2768    5.6183   21.4437 C   0  0  0  0  0  0  0  0  0  0  0  0
    8.6315    7.7322   23.1768 C   0  0  0  0  0  0  0  0  0  0  0  0
   13.0537    9.9821   20.5781 C   0  0  0  0  0  0  0  0  0  0  0  0
   10.3850    4.6575   23.2386 O   0  0  0  0  0  0  0  0  0  0  0  0
    4.2069    6.8450   20.7994 C   0  0  0  0  0  0  0  0  0  0  0  0
    3.0726   10.1043   19.8522 O   0  0  0  0  0  0  0  0  0  0  0  0
    5.5057    7.1196   21.1155 C   0  0  0  0  0  0  0  0  0  0  0  0
    7.0367   11.0229   21.9948 O   0  0  0  0  0  0  0  0  0  0  0  0
  1  8  4  0
  1 12  4  0
  2  9  1  0
  2 11  4  0
  2 25  4  0
  3 12  4  0
  3 14  1  0
  3 23  4  0
  4 13  4  0
  4 21  4  0
  4 24  1  0
  5  8  4  0
  5 23  4  0
  6 18  2  0
  7 15  4  0
  7 16  1  0
  7 27  4  0
  8 18  1  0
 10 18  1  0
 10 20  1  0
 11 15  4  0
 11 26  1  0
 13 22  4  0
 16 19  1  0
 16 20  2  0
 17 19  4  0
 17 21  4  0
 19 22  4  0
 20 28  1  0
 25 27  4  0
M  END
$$$$

 Created by Python create_sdf_string function

 28 30  0  0  0  0  0  0  0  0999 V2000
   11.4592   11.2893   18.7941 C   0  0  0  0  0  0  0  0  0  0  0  0
    3.4202    7.9009   20.3866 C   0  0  0  0  0  0  0  0  0  0  0  0
   13.5280   10.3522   19.3586 C   0  0  0  0  0  0  0  0  0  0  0  0
    9.6923    5.6468   22.7891 C   0  0  0  0  0  0  0  0  0  0  0  0
   11.7756   10.2554   20.8841 N   0  0  0  0  0  0  0  0  0  0  0  0
    8.9876   11.9370   19.8757 O   0  0  0  0  0  0  0  0  0  0  0  0
    6.0167    8.4478   21.1089 C   0  0  0  0  0  0  0  0  0  0  0  0
   11.0002   10.8890   20.0262 C   0  0  0  0  0  0  0  0  0  0  0  0
    2.1721    7.7393   20.0315 O   0  0  0  0  0  0  0  0  0  0  0  0
    9.1107   10.3880   21.3769 N   0  0  0  0  0  0  0  0  0  0  0  0
    3.9102    9.2008   20.3124 C   0  0  0  0  0  0  0  0  0  0  0  0
   12.7292   10.9960   18.4597 C   0  0  0  0  0  0  0  0  0  0  0  0
    9.3798    6.6793   23.6625 C   0  0  0  0  0  0  0  0  0  0  0  0
   14.7425   10.0739   19.0802 O   0  0  0  0  0  0  0  0  0  0  0  0
    5.1894    9.4673   20.7118 C   0  0  0  0  0  0  0  0  0  0  0  0
    7.3773    8.8224   21.4870 C   0  0  0  0  0  0  0  0  0  0  0  0
    8.4391    6.6439   21.0235 C   0  0  0  0  0  0  0  0  0  0  0  0
    9.6494   11.1353   20.4167 C   0  0  0  0  0  0  0  0  0  0  0  0
    8.1431    7.6829   21.9046 C   0  0  0  0  0  0  0  0  0  0  0  0
    7.7796   10.1314   21.5115 N   0  0  0  0  0  0  0  0  0  0  0  0
    9.2768    5.6183   21.4437 C   0  0  0  0  0  0  0  0  0  0  0  0
    8.6315    7.7322   23.1768 C   0  0  0  0  0  0  0  0  0  0  0  0
   13.0537    9.9821   20.5781 C   0  0  0  0  0  0  0  0  0  0  0  0
   10.3850    4.6575   23.2386 O   0  0  0  0  0  0  0  0  0  0  0  0
    4.2069    6.8450   20.7994 C   0  0  0  0  0  0  0  0  0  0  0  0
    3.0726   10.1043   19.8522 O   0  0  0  0  0  0  0  0  0  0  0  0
    5.5057    7.1196   21.1155 C   0  0  0  0  0  0  0  0  0  0  0  0
    7.0367   11.0229   21.9948 O   0  0  0  0  0  0  0  0  0  0  0  0
  1  8  4  0
  1 12  4  0
  2  9  1  0
  2 11  4  0
  2 25  4  0
  3 12  4  0
  3 14  1  0
  3 23  4  0
  4 13  4  0
  4 21  4  0
  4 24  1  0
  5  8  4  0
  5 23  4  0
  6 18  2  0
  7 15  4  0
  7 16  1  0
  7 27  4  0
  8 18  1  0
 10 18  1  0
 10 20  1  0
 11 15  4  0
 11 26  1  0
 13 22  4  0
 16 19  1  0
 16 20  2  0
 17 19  4  0
 17 21  4  0
 19 22  4  0
 20 28  1  0
 25 27  4  0
M  END
$$$$

 Created by Python create_sdf_string function

 28 30  0  0  0  0  0  0  0  0999 V2000
   11.4592   11.2893   18.7941 C   0  0  0  0  0  0  0  0  0  0  0  0
    3.4202    7.9009   20.3866 C   0  0  0  0  0  0  0  0  0  0  0  0
   13.5280   10.3522   19.3586 C   0  0  0  0  0  0  0  0  0  0  0  0
    9.6923    5.6468   22.7891 C   0  0  0  0  0  0  0  0  0  0  0  0
   11.7756   10.2554   20.8841 N   0  0  0  0  0  0  0  0  0  0  0  0
    8.9876   11.9370   19.8757 O   0  0  0  0  0  0  0  0  0  0  0  0
    6.0167    8.4478   21.1089 C   0  0  0  0  0  0  0  0  0  0  0  0
   11.0002   10.8890   20.0262 C   0  0  0  0  0  0  0  0  0  0  0  0
    2.1721    7.7393   20.0315 O   0  0  0  0  0  0  0  0  0  0  0  0
    9.1107   10.3880   21.3769 N   0  0  0  0  0  0  0  0  0  0  0  0
    3.9102    9.2008   20.3124 C   0  0  0  0  0  0  0  0  0  0  0  0
   12.7292   10.9960   18.4597 C   0  0  0  0  0  0  0  0  0  0  0  0
    9.3798    6.6793   23.6625 C   0  0  0  0  0  0  0  0  0  0  0  0
   14.7425   10.0739   19.0802 O   0  0  0  0  0  0  0  0  0  0  0  0
    5.1894    9.4673   20.7118 C   0  0  0  0  0  0  0  0  0  0  0  0
    7.3773    8.8224   21.4870 C   0  0  0  0  0  0  0  0  0  0  0  0
    8.4391    6.6439   21.0235 C   0  0  0  0  0  0  0  0  0  0  0  0
    9.6494   11.1353   20.4167 C   0  0  0  0  0  0  0  0  0  0  0  0
    8.1431    7.6829   21.9046 C   0  0  0  0  0  0  0  0  0  0  0  0
    7.7796   10.1314   21.5115 N   0  0  0  0  0  0  0  0  0  0  0  0
    9.2768    5.6183   21.4437 C   0  0  0  0  0  0  0  0  0  0  0  0
    8.6315    7.7322   23.1768 C   0  0  0  0  0  0  0  0  0  0  0  0
   13.0537    9.9821   20.5781 C   0  0  0  0  0  0  0  0  0  0  0  0
   10.3850    4.6575   23.2386 O   0  0  0  0  0  0  0  0  0  0  0  0
    4.2069    6.8450   20.7994 C   0  0  0  0  0  0  0  0  0  0  0  0
    3.0726   10.1043   19.8522 O   0  0  0  0  0  0  0  0  0  0  0  0
    5.5057    7.1196   21.1155 C   0  0  0  0  0  0  0  0  0  0  0  0
    7.0367   11.0229   21.9948 O   0  0  0  0  0  0  0  0  0  0  0  0
  1  8  4  0
  1 12  4  0
  2  9  1  0
  2 11  4  0
  2 25  4  0
  3 12  4  0
  3 14  1  0
  3 23  4  0
  4 13  4  0
  4 21  4  0
  4 24  1  0
  5  8  4  0
  5 23  4  0
  6 18  2  0
  7 15  4  0
  7 16  1  0
  7 27  4  0
  8 18  1  0
 10 18  1  0
 10 20  1  0
 11 15  4  0
 11 26  1  0
 13 22  4  0
 16 19  1  0
 16 20  2  0
 17 19  4  0
 17 21  4  0
 19 22  4  0
 20 28  1  0
 25 27  4  0
M  END
$$$$

 Created by Python create_sdf_string function

 28 30  0  0  0  0  0  0  0  0999 V2000
   11.4592   11.2893   18.7941 C   0  0  0  0  0  0  0  0  0  0  0  0
    3.4202    7.9009   20.3866 C   0  0  0  0  0  0  0  0  0  0  0  0
   13.5280   10.3522   19.3586 C   0  0  0  0  0  0  0  0  0  0  0  0
    9.6923    5.6468   22.7891 C   0  0  0  0  0  0  0  0  0  0  0  0
   11.7756   10.2554   20.8841 N   0  0  0  0  0  0  0  0  0  0  0  0
    8.9876   11.9370   19.8757 O   0  0  0  0  0  0  0  0  0  0  0  0
    6.0167    8.4478   21.1089 C   0  0  0  0  0  0  0  0  0  0  0  0
   11.0002   10.8890   20.0262 C   0  0  0  0  0  0  0  0  0  0  0  0
    2.1721    7.7393   20.0315 O   0  0  0  0  0  0  0  0  0  0  0  0
    9.1107   10.3880   21.3769 N   0  0  0  0  0  0  0  0  0  0  0  0
    3.9102    9.2008   20.3124 C   0  0  0  0  0  0  0  0  0  0  0  0
   12.7292   10.9960   18.4597 C   0  0  0  0  0  0  0  0  0  0  0  0
    9.3798    6.6793   23.6625 C   0  0  0  0  0  0  0  0  0  0  0  0
   14.7425   10.0739   19.0802 O   0  0  0  0  0  0  0  0  0  0  0  0
    5.1894    9.4673   20.7118 C   0  0  0  0  0  0  0  0  0  0  0  0
    7.3773    8.8224   21.4870 C   0  0  0  0  0  0  0  0  0  0  0  0
    8.4391    6.6439   21.0235 C   0  0  0  0  0  0  0  0  0  0  0  0
    9.6494   11.1353   20.4167 C   0  0  0  0  0  0  0  0  0  0  0  0
    8.1431    7.6829   21.9046 C   0  0  0  0  0  0  0  0  0  0  0  0
    7.7796   10.1314   21.5115 N   0  0  0  0  0  0  0  0  0  0  0  0
    9.2768    5.6183   21.4437 C   0  0  0  0  0  0  0  0  0  0  0  0
    8.6315    7.7322   23.1768 C   0  0  0  0  0  0  0  0  0  0  0  0
   13.0537    9.9821   20.5781 C   0  0  0  0  0  0  0  0  0  0  0  0
   10.3850    4.6575   23.2386 O   0  0  0  0  0  0  0  0  0  0  0  0
    4.2069    6.8450   20.7994 C   0  0  0  0  0  0  0  0  0  0  0  0
    3.0726   10.1043   19.8522 O   0  0  0  0  0  0  0  0  0  0  0  0
    5.5057    7.1196   21.1155 C   0  0  0  0  0  0  0  0  0  0  0  0
    7.0367   11.0229   21.9948 O   0  0  0  0  0  0  0  0  0  0  0  0
  1  8  4  0
  1 12  4  0
  2  9  1  0
  2 11  4  0
  2 25  4  0
  3 12  4  0
  3 14  1  0
  3 23  4  0
  4 13  4  0
  4 21  4  0
  4 24  1  0
  5  8  4  0
  5 23  4  0
  6 18  2  0
  7 15  4  0
  7 16  1  0
  7 27  4  0
  8 18  1  0
 10 18  1  0
 10 20  1  0
 11 15  4  0
 11 26  1  0
 13 22  4  0
 16 19  1  0
 16 20  2  0
 17 19  4  0
 17 21  4  0
 19 22  4  0
 20 28  1  0
 25 27  4  0
M  END
$$$$

 Created by Python create_sdf_string function

 28 30  0  0  0  0  0  0  0  0999 V2000
   11.4592   11.2893   18.7941 C   0  0  0  0  0  0  0  0  0  0  0  0
    3.4202    7.9009   20.3866 C   0  0  0  0  0  0  0  0  0  0  0  0
   13.5280   10.3522   19.3586 C   0  0  0  0  0  0  0  0  0  0  0  0
    9.6923    5.6468   22.7891 C   0  0  0  0  0  0  0  0  0  0  0  0
   11.7756   10.2554   20.8841 N   0  0  0  0  0  0  0  0  0  0  0  0
    8.9876   11.9370   19.8757 O   0  0  0  0  0  0  0  0  0  0  0  0
    6.0167    8.4478   21.1089 C   0  0  0  0  0  0  0  0  0  0  0  0
   11.0002   10.8890   20.0262 C   0  0  0  0  0  0  0  0  0  0  0  0
    2.1721    7.7393   20.0315 O   0  0  0  0  0  0  0  0  0  0  0  0
    9.1107   10.3880   21.3769 N   0  0  0  0  0  0  0  0  0  0  0  0
    3.9102    9.2008   20.3124 C   0  0  0  0  0  0  0  0  0  0  0  0
   12.7292   10.9960   18.4597 C   0  0  0  0  0  0  0  0  0  0  0  0
    9.3798    6.6793   23.6625 C   0  0  0  0  0  0  0  0  0  0  0  0
   14.7425   10.0739   19.0802 O   0  0  0  0  0  0  0  0  0  0  0  0
    5.1894    9.4673   20.7118 C   0  0  0  0  0  0  0  0  0  0  0  0
    7.3773    8.8224   21.4870 C   0  0  0  0  0  0  0  0  0  0  0  0
    8.4391    6.6439   21.0235 C   0  0  0  0  0  0  0  0  0  0  0  0
    9.6494   11.1353   20.4167 C   0  0  0  0  0  0  0  0  0  0  0  0
    8.1431    7.6829   21.9046 C   0  0  0  0  0  0  0  0  0  0  0  0
    7.7796   10.1314   21.5115 N   0  0  0  0  0  0  0  0  0  0  0  0
    9.2768    5.6183   21.4437 C   0  0  0  0  0  0  0  0  0  0  0  0
    8.6315    7.7322   23.1768 C   0  0  0  0  0  0  0  0  0  0  0  0
   13.0537    9.9821   20.5781 C   0  0  0  0  0  0  0  0  0  0  0  0
   10.3850    4.6575   23.2386 O   0  0  0  0  0  0  0  0  0  0  0  0
    4.2069    6.8450   20.7994 C   0  0  0  0  0  0  0  0  0  0  0  0
    3.0726   10.1043   19.8522 O   0  0  0  0  0  0  0  0  0  0  0  0
    5.5057    7.1196   21.1155 C   0  0  0  0  0  0  0  0  0  0  0  0
    7.0367   11.0229   21.9948 O   0  0  0  0  0  0  0  0  0  0  0  0
  1  8  4  0
  1 12  4  0
  2  9  1  0
  2 11  4  0
  2 25  4  0
  3 12  4  0
  3 14  1  0
  3 23  4  0
  4 13  4  0
  4 21  4  0
  4 24  1  0
  5  8  4  0
  5 23  4  0
  6 18  2  0
  7 15  4  0
  7 16  1  0
  7 27  4  0
  8 18  1  0
 10 18  1  0
 10 20  1  0
 11 15  4  0
 11 26  1  0
 13 22  4  0
 16 19  1  0
 16 20  2  0
 17 19  4  0
 17 21  4  0
 19 22  4  0
 20 28  1  0
 25 27  4  0
M  END
$$$$

 Created by Python create_sdf_string function

 28 30  0  0  0  0  0  0  0  0999 V2000
   11.4592   11.2893   18.7941 C   0  0  0  0  0  0  0  0  0  0  0  0
    3.4202    7.9009   20.3866 C   0  0  0  0  0  0  0  0  0  0  0  0
   13.5280   10.3522   19.3586 C   0  0  0  0  0  0  0  0  0  0  0  0
    9.6923    5.6468   22.7891 C   0  0  0  0  0  0  0  0  0  0  0  0
   11.7756   10.2554   20.8841 N   0  0  0  0  0  0  0  0  0  0  0  0
    8.9876   11.9370   19.8757 O   0  0  0  0  0  0  0  0  0  0  0  0
    6.0167    8.4478   21.1089 C   0  0  0  0  0  0  0  0  0  0  0  0
   11.0002   10.8890   20.0262 C   0  0  0  0  0  0  0  0  0  0  0  0
    2.1721    7.7393   20.0315 O   0  0  0  0  0  0  0  0  0  0  0  0
    9.1107   10.3880   21.3769 N   0  0  0  0  0  0  0  0  0  0  0  0
    3.9102    9.2008   20.3124 C   0  0  0  0  0  0  0  0  0  0  0  0
   12.7292   10.9960   18.4597 C   0  0  0  0  0  0  0  0  0  0  0  0
    9.3798    6.6793   23.6625 C   0  0  0  0  0  0  0  0  0  0  0  0
   14.7425   10.0739   19.0802 O   0  0  0  0  0  0  0  0  0  0  0  0
    5.1894    9.4673   20.7118 C   0  0  0  0  0  0  0  0  0  0  0  0
    7.3773    8.8224   21.4870 C   0  0  0  0  0  0  0  0  0  0  0  0
    8.4391    6.6439   21.0235 C   0  0  0  0  0  0  0  0  0  0  0  0
    9.6494   11.1353   20.4167 C   0  0  0  0  0  0  0  0  0  0  0  0
    8.1431    7.6829   21.9046 C   0  0  0  0  0  0  0  0  0  0  0  0
    7.7796   10.1314   21.5115 N   0  0  0  0  0  0  0  0  0  0  0  0
    9.2768    5.6183   21.4437 C   0  0  0  0  0  0  0  0  0  0  0  0
    8.6315    7.7322   23.1768 C   0  0  0  0  0  0  0  0  0  0  0  0
   13.0537    9.9821   20.5781 C   0  0  0  0  0  0  0  0  0  0  0  0
   10.3850    4.6575   23.2386 O   0  0  0  0  0  0  0  0  0  0  0  0
    4.2069    6.8450   20.7994 C   0  0  0  0  0  0  0  0  0  0  0  0
    3.0726   10.1043   19.8522 O   0  0  0  0  0  0  0  0  0  0  0  0
    5.5057    7.1196   21.1155 C   0  0  0  0  0  0  0  0  0  0  0  0
    7.0367   11.0229   21.9948 O   0  0  0  0  0  0  0  0  0  0  0  0
  1  8  4  0
  1 12  4  0
  2  9  1  0
  2 11  4  0
  2 25  4  0
  3 12  4  0
  3 14  1  0
  3 23  4  0
  4 13  4  0
  4 21  4  0
  4 24  1  0
  5  8  4  0
  5 23  4  0
  6 18  2  0
  7 15  4  0
  7 16  1  0
  7 27  4  0
  8 18  1  0
 10 18  1  0
 10 20  1  0
 11 15  4  0
 11 26  1  0
 13 22  4  0
 16 19  1  0
 16 20  2  0
 17 19  4  0
 17 21  4  0
 19 22  4  0
 20 28  1  0
 25 27  4  0
M  END
$$$$

 Created by Python create_sdf_string function

 28 30  0  0  0  0  0  0  0  0999 V2000
   11.4592   11.2893   18.7941 C   0  0  0  0  0  0  0  0  0  0  0  0
    3.4202    7.9009   20.3866 C   0  0  0  0  0  0  0  0  0  0  0  0
   13.5280   10.3522   19.3586 C   0  0  0  0  0  0  0  0  0  0  0  0
    9.6923    5.6468   22.7891 C   0  0  0  0  0  0  0  0  0  0  0  0
   11.7756   10.2554   20.8841 N   0  0  0  0  0  0  0  0  0  0  0  0
    8.9876   11.9370   19.8757 O   0  0  0  0  0  0  0  0  0  0  0  0
    6.0167    8.4478   21.1089 C   0  0  0  0  0  0  0  0  0  0  0  0
   11.0002   10.8890   20.0262 C   0  0  0  0  0  0  0  0  0  0  0  0
    2.1721    7.7393   20.0315 O   0  0  0  0  0  0  0  0  0  0  0  0
    9.1107   10.3880   21.3769 N   0  0  0  0  0  0  0  0  0  0  0  0
    3.9102    9.2008   20.3124 C   0  0  0  0  0  0  0  0  0  0  0  0
   12.7292   10.9960   18.4597 C   0  0  0  0  0  0  0  0  0  0  0  0
    9.3798    6.6793   23.6625 C   0  0  0  0  0  0  0  0  0  0  0  0
   14.7425   10.0739   19.0802 O   0  0  0  0  0  0  0  0  0  0  0  0
    5.1894    9.4673   20.7118 C   0  0  0  0  0  0  0  0  0  0  0  0
    7.3773    8.8224   21.4870 C   0  0  0  0  0  0  0  0  0  0  0  0
    8.4391    6.6439   21.0235 C   0  0  0  0  0  0  0  0  0  0  0  0
    9.6494   11.1353   20.4167 C   0  0  0  0  0  0  0  0  0  0  0  0
    8.1431    7.6829   21.9046 C   0  0  0  0  0  0  0  0  0  0  0  0
    7.7796   10.1314   21.5115 N   0  0  0  0  0  0  0  0  0  0  0  0
    9.2768    5.6183   21.4437 C   0  0  0  0  0  0  0  0  0  0  0  0
    8.6315    7.7322   23.1768 C   0  0  0  0  0  0  0  0  0  0  0  0
   13.0537    9.9821   20.5781 C   0  0  0  0  0  0  0  0  0  0  0  0
   10.3850    4.6575   23.2386 O   0  0  0  0  0  0  0  0  0  0  0  0
    4.2069    6.8450   20.7994 C   0  0  0  0  0  0  0  0  0  0  0  0
    3.0726   10.1043   19.8522 O   0  0  0  0  0  0  0  0  0  0  0  0
    5.5057    7.1196   21.1155 C   0  0  0  0  0  0  0  0  0  0  0  0
    7.0367   11.0229   21.9948 O   0  0  0  0  0  0  0  0  0  0  0  0
  1  8  4  0
  1 12  4  0
  2  9  1  0
  2 11  4  0
  2 25  4  0
  3 12  4  0
  3 14  1  0
  3 23  4  0
  4 13  4  0
  4 21  4  0
  4 24  1  0
  5  8  4  0
  5 23  4  0
  6 18  2  0
  7 15  4  0
  7 16  1  0
  7 27  4  0
  8 18  1  0
 10 18  1  0
 10 20  1  0
 11 15  4  0
 11 26  1  0
 13 22  4  0
 16 19  1  0
 16 20  2  0
 17 19  4  0
 17 21  4  0
 19 22  4  0
 20 28  1  0
 25 27  4  0
M  END
$$$$

 Created by Python create_sdf_string function

 28 30  0  0  0  0  0  0  0  0999 V2000
   11.4592   11.2893   18.7941 C   0  0  0  0  0  0  0  0  0  0  0  0
    3.4202    7.9009   20.3866 C   0  0  0  0  0  0  0  0  0  0  0  0
   13.5280   10.3522   19.3586 C   0  0  0  0  0  0  0  0  0  0  0  0
    9.6923    5.6468   22.7891 C   0  0  0  0  0  0  0  0  0  0  0  0
   11.7756   10.2554   20.8841 N   0  0  0  0  0  0  0  0  0  0  0  0
    8.9876   11.9370   19.8757 O   0  0  0  0  0  0  0  0  0  0  0  0
    6.0167    8.4478   21.1089 C   0  0  0  0  0  0  0  0  0  0  0  0
   11.0002   10.8890   20.0262 C   0  0  0  0  0  0  0  0  0  0  0  0
    2.1721    7.7393   20.0315 O   0  0  0  0  0  0  0  0  0  0  0  0
    9.1107   10.3880   21.3769 N   0  0  0  0  0  0  0  0  0  0  0  0
    3.9102    9.2008   20.3124 C   0  0  0  0  0  0  0  0  0  0  0  0
   12.7292   10.9960   18.4597 C   0  0  0  0  0  0  0  0  0  0  0  0
    9.3798    6.6793   23.6625 C   0  0  0  0  0  0  0  0  0  0  0  0
   14.7425   10.0739   19.0802 O   0  0  0  0  0  0  0  0  0  0  0  0
    5.1894    9.4673   20.7118 C   0  0  0  0  0  0  0  0  0  0  0  0
    7.3773    8.8224   21.4870 C   0  0  0  0  0  0  0  0  0  0  0  0
    8.4391    6.6439   21.0235 C   0  0  0  0  0  0  0  0  0  0  0  0
    9.6494   11.1353   20.4167 C   0  0  0  0  0  0  0  0  0  0  0  0
    8.1431    7.6829   21.9046 C   0  0  0  0  0  0  0  0  0  0  0  0
    7.7796   10.1314   21.5115 N   0  0  0  0  0  0  0  0  0  0  0  0
    9.2768    5.6183   21.4437 C   0  0  0  0  0  0  0  0  0  0  0  0
    8.6315    7.7322   23.1768 C   0  0  0  0  0  0  0  0  0  0  0  0
   13.0537    9.9821   20.5781 C   0  0  0  0  0  0  0  0  0  0  0  0
   10.3850    4.6575   23.2386 O   0  0  0  0  0  0  0  0  0  0  0  0
    4.2069    6.8450   20.7994 C   0  0  0  0  0  0  0  0  0  0  0  0
    3.0726   10.1043   19.8522 O   0  0  0  0  0  0  0  0  0  0  0  0
    5.5057    7.1196   21.1155 C   0  0  0  0  0  0  0  0  0  0  0  0
    7.0367   11.0229   21.9948 O   0  0  0  0  0  0  0  0  0  0  0  0
  1  8  4  0
  1 12  4  0
  2  9  1  0
  2 11  4  0
  2 25  4  0
  3 12  4  0
  3 14  1  0
  3 23  4  0
  4 13  4  0
  4 21  4  0
  4 24  1  0
  5  8  4  0
  5 23  4  0
  6 18  2  0
  7 15  4  0
  7 16  1  0
  7 27  4  0
  8 18  1  0
 10 18  1  0
 10 20  1  0
 11 15  4  0
 11 26  1  0
 13 22  4  0
 16 19  1  0
 16 20  2  0
 17 19  4  0
 17 21  4  0
 19 22  4  0
 20 28  1  0
 25 27  4  0
M  END
$$$$

 Created by Python create_sdf_string function

 28 30  0  0  0  0  0  0  0  0999 V2000
   11.4592   11.2893   18.7941 C   0  0  0  0  0  0  0  0  0  0  0  0
    3.4202    7.9009   20.3866 C   0  0  0  0  0  0  0  0  0  0  0  0
   13.5280   10.3522   19.3586 C   0  0  0  0  0  0  0  0  0  0  0  0
    9.6923    5.6468   22.7891 C   0  0  0  0  0  0  0  0  0  0  0  0
   11.7756   10.2554   20.8841 N   0  0  0  0  0  0  0  0  0  0  0  0
    8.9876   11.9370   19.8757 O   0  0  0  0  0  0  0  0  0  0  0  0
    6.0167    8.4478   21.1089 C   0  0  0  0  0  0  0  0  0  0  0  0
   11.0002   10.8890   20.0262 C   0  0  0  0  0  0  0  0  0  0  0  0
    2.1721    7.7393   20.0315 O   0  0  0  0  0  0  0  0  0  0  0  0
    9.1107   10.3880   21.3769 N   0  0  0  0  0  0  0  0  0  0  0  0
    3.9102    9.2008   20.3124 C   0  0  0  0  0  0  0  0  0  0  0  0
   12.7292   10.9960   18.4597 C   0  0  0  0  0  0  0  0  0  0  0  0
    9.3798    6.6793   23.6625 C   0  0  0  0  0  0  0  0  0  0  0  0
   14.7425   10.0739   19.0802 O   0  0  0  0  0  0  0  0  0  0  0  0
    5.1894    9.4673   20.7118 C   0  0  0  0  0  0  0  0  0  0  0  0
    7.3773    8.8224   21.4870 C   0  0  0  0  0  0  0  0  0  0  0  0
    8.4391    6.6439   21.0235 C   0  0  0  0  0  0  0  0  0  0  0  0
    9.6494   11.1353   20.4167 C   0  0  0  0  0  0  0  0  0  0  0  0
    8.1431    7.6829   21.9046 C   0  0  0  0  0  0  0  0  0  0  0  0
    7.7796   10.1314   21.5115 N   0  0  0  0  0  0  0  0  0  0  0  0
    9.2768    5.6183   21.4437 C   0  0  0  0  0  0  0  0  0  0  0  0
    8.6315    7.7322   23.1768 C   0  0  0  0  0  0  0  0  0  0  0  0
   13.0537    9.9821   20.5781 C   0  0  0  0  0  0  0  0  0  0  0  0
   10.3850    4.6575   23.2386 O   0  0  0  0  0  0  0  0  0  0  0  0
    4.2069    6.8450   20.7994 C   0  0  0  0  0  0  0  0  0  0  0  0
    3.0726   10.1043   19.8522 O   0  0  0  0  0  0  0  0  0  0  0  0
    5.5057    7.1196   21.1155 C   0  0  0  0  0  0  0  0  0  0  0  0
    7.0367   11.0229   21.9948 O   0  0  0  0  0  0  0  0  0  0  0  0
  1  8  4  0
  1 12  4  0
  2  9  1  0
  2 11  4  0
  2 25  4  0
  3 12  4  0
  3 14  1  0
  3 23  4  0
  4 13  4  0
  4 21  4  0
  4 24  1  0
  5  8  4  0
  5 23  4  0
  6 18  2  0
  7 15  4  0
  7 16  1  0
  7 27  4  0
  8 18  1  0
 10 18  1  0
 10 20  1  0
 11 15  4  0
 11 26  1  0
 13 22  4  0
 16 19  1  0
 16 20  2  0
 17 19  4  0
 17 21  4  0
 19 22  4  0
 20 28  1  0
 25 27  4  0
M  END
$$$$

 Created by Python create_sdf_string function

 28 30  0  0  0  0  0  0  0  0999 V2000
   11.4592   11.2893   18.7941 C   0  0  0  0  0  0  0  0  0  0  0  0
    3.4202    7.9009   20.3866 C   0  0  0  0  0  0  0  0  0  0  0  0
   13.5280   10.3522   19.3586 C   0  0  0  0  0  0  0  0  0  0  0  0
    9.6923    5.6468   22.7891 C   0  0  0  0  0  0  0  0  0  0  0  0
   11.7756   10.2554   20.8841 N   0  0  0  0  0  0  0  0  0  0  0  0
    8.9876   11.9370   19.8757 O   0  0  0  0  0  0  0  0  0  0  0  0
    6.0167    8.4478   21.1089 C   0  0  0  0  0  0  0  0  0  0  0  0
   11.0002   10.8890   20.0262 C   0  0  0  0  0  0  0  0  0  0  0  0
    2.1721    7.7393   20.0315 O   0  0  0  0  0  0  0  0  0  0  0  0
    9.1107   10.3880   21.3769 N   0  0  0  0  0  0  0  0  0  0  0  0
    3.9102    9.2008   20.3124 C   0  0  0  0  0  0  0  0  0  0  0  0
   12.7292   10.9960   18.4597 C   0  0  0  0  0  0  0  0  0  0  0  0
    9.3798    6.6793   23.6625 C   0  0  0  0  0  0  0  0  0  0  0  0
   14.7425   10.0739   19.0802 O   0  0  0  0  0  0  0  0  0  0  0  0
    5.1894    9.4673   20.7118 C   0  0  0  0  0  0  0  0  0  0  0  0
    7.3773    8.8224   21.4870 C   0  0  0  0  0  0  0  0  0  0  0  0
    8.4391    6.6439   21.0235 C   0  0  0  0  0  0  0  0  0  0  0  0
    9.6494   11.1353   20.4167 C   0  0  0  0  0  0  0  0  0  0  0  0
    8.1431    7.6829   21.9046 C   0  0  0  0  0  0  0  0  0  0  0  0
    7.7796   10.1314   21.5115 N   0  0  0  0  0  0  0  0  0  0  0  0
    9.2768    5.6183   21.4437 C   0  0  0  0  0  0  0  0  0  0  0  0
    8.6315    7.7322   23.1768 C   0  0  0  0  0  0  0  0  0  0  0  0
   13.0537    9.9821   20.5781 C   0  0  0  0  0  0  0  0  0  0  0  0
   10.3850    4.6575   23.2386 O   0  0  0  0  0  0  0  0  0  0  0  0
    4.2069    6.8450   20.7994 C   0  0  0  0  0  0  0  0  0  0  0  0
    3.0726   10.1043   19.8522 O   0  0  0  0  0  0  0  0  0  0  0  0
    5.5057    7.1196   21.1155 C   0  0  0  0  0  0  0  0  0  0  0  0
    7.0367   11.0229   21.9948 O   0  0  0  0  0  0  0  0  0  0  0  0
  1  8  4  0
  1 12  4  0
  2  9  1  0
  2 11  4  0
  2 25  4  0
  3 12  4  0
  3 14  1  0
  3 23  4  0
  4 13  4  0
  4 21  4  0
  4 24  1  0
  5  8  4  0
  5 23  4  0
  6 18  2  0
  7 15  4  0
  7 16  1  0
  7 27  4  0
  8 18  1  0
 10 18  1  0
 10 20  1  0
 11 15  4  0
 11 26  1  0
 13 22  4  0
 16 19  1  0
 16 20  2  0
 17 19  4  0
 17 21  4  0
 19 22  4  0
 20 28  1  0
 25 27  4  0
M  END
$$$$

 Created by Python create_sdf_string function

 28 30  0  0  0  0  0  0  0  0999 V2000
   11.4592   11.2893   18.7941 C   0  0  0  0  0  0  0  0  0  0  0  0
    3.4202    7.9009   20.3866 C   0  0  0  0  0  0  0  0  0  0  0  0
   13.5280   10.3522   19.3586 C   0  0  0  0  0  0  0  0  0  0  0  0
    9.6923    5.6468   22.7891 C   0  0  0  0  0  0  0  0  0  0  0  0
   11.7756   10.2554   20.8841 N   0  0  0  0  0  0  0  0  0  0  0  0
    8.9876   11.9370   19.8757 O   0  0  0  0  0  0  0  0  0  0  0  0
    6.0167    8.4478   21.1089 C   0  0  0  0  0  0  0  0  0  0  0  0
   11.0002   10.8890   20.0262 C   0  0  0  0  0  0  0  0  0  0  0  0
    2.1721    7.7393   20.0315 O   0  0  0  0  0  0  0  0  0  0  0  0
    9.1107   10.3880   21.3769 N   0  0  0  0  0  0  0  0  0  0  0  0
    3.9102    9.2008   20.3124 C   0  0  0  0  0  0  0  0  0  0  0  0
   12.7292   10.9960   18.4597 C   0  0  0  0  0  0  0  0  0  0  0  0
    9.3798    6.6793   23.6625 C   0  0  0  0  0  0  0  0  0  0  0  0
   14.7425   10.0739   19.0802 O   0  0  0  0  0  0  0  0  0  0  0  0
    5.1894    9.4673   20.7118 C   0  0  0  0  0  0  0  0  0  0  0  0
    7.3773    8.8224   21.4870 C   0  0  0  0  0  0  0  0  0  0  0  0
    8.4391    6.6439   21.0235 C   0  0  0  0  0  0  0  0  0  0  0  0
    9.6494   11.1353   20.4167 C   0  0  0  0  0  0  0  0  0  0  0  0
    8.1431    7.6829   21.9046 C   0  0  0  0  0  0  0  0  0  0  0  0
    7.7796   10.1314   21.5115 N   0  0  0  0  0  0  0  0  0  0  0  0
    9.2768    5.6183   21.4437 C   0  0  0  0  0  0  0  0  0  0  0  0
    8.6315    7.7322   23.1768 C   0  0  0  0  0  0  0  0  0  0  0  0
   13.0537    9.9821   20.5781 C   0  0  0  0  0  0  0  0  0  0  0  0
   10.3850    4.6575   23.2386 O   0  0  0  0  0  0  0  0  0  0  0  0
    4.2069    6.8450   20.7994 C   0  0  0  0  0  0  0  0  0  0  0  0
    3.0726   10.1043   19.8522 O   0  0  0  0  0  0  0  0  0  0  0  0
    5.5057    7.1196   21.1155 C   0  0  0  0  0  0  0  0  0  0  0  0
    7.0367   11.0229   21.9948 O   0  0  0  0  0  0  0  0  0  0  0  0
  1  8  4  0
  1 12  4  0
  2  9  1  0
  2 11  4  0
  2 25  4  0
  3 12  4  0
  3 14  1  0
  3 23  4  0
  4 13  4  0
  4 21  4  0
  4 24  1  0
  5  8  4  0
  5 23  4  0
  6 18  2  0
  7 15  4  0
  7 16  1  0
  7 27  4  0
  8 18  1  0
 10 18  1  0
 10 20  1  0
 11 15  4  0
 11 26  1  0
 13 22  4  0
 16 19  1  0
 16 20  2  0
 17 19  4  0
 17 21  4  0
 19 22  4  0
 20 28  1  0
 25 27  4  0
M  END
$$$$

 Created by Python create_sdf_string function

 28 30  0  0  0  0  0  0  0  0999 V2000
   11.4592   11.2893   18.7941 C   0  0  0  0  0  0  0  0  0  0  0  0
    3.4202    7.9009   20.3866 C   0  0  0  0  0  0  0  0  0  0  0  0
   13.5280   10.3522   19.3586 C   0  0  0  0  0  0  0  0  0  0  0  0
    9.6923    5.6468   22.7891 C   0  0  0  0  0  0  0  0  0  0  0  0
   11.7756   10.2554   20.8841 N   0  0  0  0  0  0  0  0  0  0  0  0
    8.9876   11.9370   19.8757 O   0  0  0  0  0  0  0  0  0  0  0  0
    6.0167    8.4478   21.1089 C   0  0  0  0  0  0  0  0  0  0  0  0
   11.0002   10.8890   20.0262 C   0  0  0  0  0  0  0  0  0  0  0  0
    2.1721    7.7393   20.0315 O   0  0  0  0  0  0  0  0  0  0  0  0
    9.1107   10.3880   21.3769 N   0  0  0  0  0  0  0  0  0  0  0  0
    3.9102    9.2008   20.3124 C   0  0  0  0  0  0  0  0  0  0  0  0
   12.7292   10.9960   18.4597 C   0  0  0  0  0  0  0  0  0  0  0  0
    9.3798    6.6793   23.6625 C   0  0  0  0  0  0  0  0  0  0  0  0
   14.7425   10.0739   19.0802 O   0  0  0  0  0  0  0  0  0  0  0  0
    5.1894    9.4673   20.7118 C   0  0  0  0  0  0  0  0  0  0  0  0
    7.3773    8.8224   21.4870 C   0  0  0  0  0  0  0  0  0  0  0  0
    8.4391    6.6439   21.0235 C   0  0  0  0  0  0  0  0  0  0  0  0
    9.6494   11.1353   20.4167 C   0  0  0  0  0  0  0  0  0  0  0  0
    8.1431    7.6829   21.9046 C   0  0  0  0  0  0  0  0  0  0  0  0
    7.7796   10.1314   21.5115 N   0  0  0  0  0  0  0  0  0  0  0  0
    9.2768    5.6183   21.4437 C   0  0  0  0  0  0  0  0  0  0  0  0
    8.6315    7.7322   23.1768 C   0  0  0  0  0  0  0  0  0  0  0  0
   13.0537    9.9821   20.5781 C   0  0  0  0  0  0  0  0  0  0  0  0
   10.3850    4.6575   23.2386 O   0  0  0  0  0  0  0  0  0  0  0  0
    4.2069    6.8450   20.7994 C   0  0  0  0  0  0  0  0  0  0  0  0
    3.0726   10.1043   19.8522 O   0  0  0  0  0  0  0  0  0  0  0  0
    5.5057    7.1196   21.1155 C   0  0  0  0  0  0  0  0  0  0  0  0
    7.0367   11.0229   21.9948 O   0  0  0  0  0  0  0  0  0  0  0  0
  1  8  4  0
  1 12  4  0
  2  9  1  0
  2 11  4  0
  2 25  4  0
  3 12  4  0
  3 14  1  0
  3 23  4  0
  4 13  4  0
  4 21  4  0
  4 24  1  0
  5  8  4  0
  5 23  4  0
  6 18  2  0
  7 15  4  0
  7 16  1  0
  7 27  4  0
  8 18  1  0
 10 18  1  0
 10 20  1  0
 11 15  4  0
 11 26  1  0
 13 22  4  0
 16 19  1  0
 16 20  2  0
 17 19  4  0
 17 21  4  0
 19 22  4  0
 20 28  1  0
 25 27  4  0
M  END
$$$$

 Created by Python create_sdf_string function

 28 30  0  0  0  0  0  0  0  0999 V2000
   11.4592   11.2893   18.7941 C   0  0  0  0  0  0  0  0  0  0  0  0
    3.4202    7.9009   20.3866 C   0  0  0  0  0  0  0  0  0  0  0  0
   13.5280   10.3522   19.3586 C   0  0  0  0  0  0  0  0  0  0  0  0
    9.6923    5.6468   22.7891 C   0  0  0  0  0  0  0  0  0  0  0  0
   11.7756   10.2554   20.8841 N   0  0  0  0  0  0  0  0  0  0  0  0
    8.9876   11.9370   19.8757 O   0  0  0  0  0  0  0  0  0  0  0  0
    6.0167    8.4478   21.1089 C   0  0  0  0  0  0  0  0  0  0  0  0
   11.0002   10.8890   20.0262 C   0  0  0  0  0  0  0  0  0  0  0  0
    2.1721    7.7393   20.0315 O   0  0  0  0  0  0  0  0  0  0  0  0
    9.1107   10.3880   21.3769 N   0  0  0  0  0  0  0  0  0  0  0  0
    3.9102    9.2008   20.3124 C   0  0  0  0  0  0  0  0  0  0  0  0
   12.7292   10.9960   18.4597 C   0  0  0  0  0  0  0  0  0  0  0  0
    9.3798    6.6793   23.6625 C   0  0  0  0  0  0  0  0  0  0  0  0
   14.7425   10.0739   19.0802 O   0  0  0  0  0  0  0  0  0  0  0  0
    5.1894    9.4673   20.7118 C   0  0  0  0  0  0  0  0  0  0  0  0
    7.3773    8.8224   21.4870 C   0  0  0  0  0  0  0  0  0  0  0  0
    8.4391    6.6439   21.0235 C   0  0  0  0  0  0  0  0  0  0  0  0
    9.6494   11.1353   20.4167 C   0  0  0  0  0  0  0  0  0  0  0  0
    8.1431    7.6829   21.9046 C   0  0  0  0  0  0  0  0  0  0  0  0
    7.7796   10.1314   21.5115 N   0  0  0  0  0  0  0  0  0  0  0  0
    9.2768    5.6183   21.4437 C   0  0  0  0  0  0  0  0  0  0  0  0
    8.6315    7.7322   23.1768 C   0  0  0  0  0  0  0  0  0  0  0  0
   13.0537    9.9821   20.5781 C   0  0  0  0  0  0  0  0  0  0  0  0
   10.3850    4.6575   23.2386 O   0  0  0  0  0  0  0  0  0  0  0  0
    4.2069    6.8450   20.7994 C   0  0  0  0  0  0  0  0  0  0  0  0
    3.0726   10.1043   19.8522 O   0  0  0  0  0  0  0  0  0  0  0  0
    5.5057    7.1196   21.1155 C   0  0  0  0  0  0  0  0  0  0  0  0
    7.0367   11.0229   21.9948 O   0  0  0  0  0  0  0  0  0  0  0  0
  1  8  4  0
  1 12  4  0
  2  9  1  0
  2 11  4  0
  2 25  4  0
  3 12  4  0
  3 14  1  0
  3 23  4  0
  4 13  4  0
  4 21  4  0
  4 24  1  0
  5  8  4  0
  5 23  4  0
  6 18  2  0
  7 15  4  0
  7 16  1  0
  7 27  4  0
  8 18  1  0
 10 18  1  0
 10 20  1  0
 11 15  4  0
 11 26  1  0
 13 22  4  0
 16 19  1  0
 16 20  2  0
 17 19  4  0
 17 21  4  0
 19 22  4  0
 20 28  1  0
 25 27  4  0
M  END
$$$$

 Created by Python create_sdf_string function

 28 30  0  0  0  0  0  0  0  0999 V2000
   11.4592   11.2893   18.7941 C   0  0  0  0  0  0  0  0  0  0  0  0
    3.4202    7.9009   20.3866 C   0  0  0  0  0  0  0  0  0  0  0  0
   13.5280   10.3522   19.3586 C   0  0  0  0  0  0  0  0  0  0  0  0
    9.6923    5.6468   22.7891 C   0  0  0  0  0  0  0  0  0  0  0  0
   11.7756   10.2554   20.8841 N   0  0  0  0  0  0  0  0  0  0  0  0
    8.9876   11.9370   19.8757 O   0  0  0  0  0  0  0  0  0  0  0  0
    6.0167    8.4478   21.1089 C   0  0  0  0  0  0  0  0  0  0  0  0
   11.0002   10.8890   20.0262 C   0  0  0  0  0  0  0  0  0  0  0  0
    2.1721    7.7393   20.0315 O   0  0  0  0  0  0  0  0  0  0  0  0
    9.1107   10.3880   21.3769 N   0  0  0  0  0  0  0  0  0  0  0  0
    3.9102    9.2008   20.3124 C   0  0  0  0  0  0  0  0  0  0  0  0
   12.7292   10.9960   18.4597 C   0  0  0  0  0  0  0  0  0  0  0  0
    9.3798    6.6793   23.6625 C   0  0  0  0  0  0  0  0  0  0  0  0
   14.7425   10.0739   19.0802 O   0  0  0  0  0  0  0  0  0  0  0  0
    5.1894    9.4673   20.7118 C   0  0  0  0  0  0  0  0  0  0  0  0
    7.3773    8.8224   21.4870 C   0  0  0  0  0  0  0  0  0  0  0  0
    8.4391    6.6439   21.0235 C   0  0  0  0  0  0  0  0  0  0  0  0
    9.6494   11.1353   20.4167 C   0  0  0  0  0  0  0  0  0  0  0  0
    8.1431    7.6829   21.9046 C   0  0  0  0  0  0  0  0  0  0  0  0
    7.7796   10.1314   21.5115 N   0  0  0  0  0  0  0  0  0  0  0  0
    9.2768    5.6183   21.4437 C   0  0  0  0  0  0  0  0  0  0  0  0
    8.6315    7.7322   23.1768 C   0  0  0  0  0  0  0  0  0  0  0  0
   13.0537    9.9821   20.5781 C   0  0  0  0  0  0  0  0  0  0  0  0
   10.3850    4.6575   23.2386 O   0  0  0  0  0  0  0  0  0  0  0  0
    4.2069    6.8450   20.7994 C   0  0  0  0  0  0  0  0  0  0  0  0
    3.0726   10.1043   19.8522 O   0  0  0  0  0  0  0  0  0  0  0  0
    5.5057    7.1196   21.1155 C   0  0  0  0  0  0  0  0  0  0  0  0
    7.0367   11.0229   21.9948 O   0  0  0  0  0  0  0  0  0  0  0  0
  1  8  4  0
  1 12  4  0
  2  9  1  0
  2 11  4  0
  2 25  4  0
  3 12  4  0
  3 14  1  0
  3 23  4  0
  4 13  4  0
  4 21  4  0
  4 24  1  0
  5  8  4  0
  5 23  4  0
  6 18  2  0
  7 15  4  0
  7 16  1  0
  7 27  4  0
  8 18  1  0
 10 18  1  0
 10 20  1  0
 11 15  4  0
 11 26  1  0
 13 22  4  0
 16 19  1  0
 16 20  2  0
 17 19  4  0
 17 21  4  0
 19 22  4  0
 20 28  1  0
 25 27  4  0
M  END
$$$$

 Created by Python create_sdf_string function

 28 30  0  0  0  0  0  0  0  0999 V2000
   11.4592   11.2893   18.7941 C   0  0  0  0  0  0  0  0  0  0  0  0
    3.4202    7.9009   20.3866 C   0  0  0  0  0  0  0  0  0  0  0  0
   13.5280   10.3522   19.3586 C   0  0  0  0  0  0  0  0  0  0  0  0
    9.6923    5.6468   22.7891 C   0  0  0  0  0  0  0  0  0  0  0  0
   11.7756   10.2554   20.8841 N   0  0  0  0  0  0  0  0  0  0  0  0
    8.9876   11.9370   19.8757 O   0  0  0  0  0  0  0  0  0  0  0  0
    6.0167    8.4478   21.1089 C   0  0  0  0  0  0  0  0  0  0  0  0
   11.0002   10.8890   20.0262 C   0  0  0  0  0  0  0  0  0  0  0  0
    2.1721    7.7393   20.0315 O   0  0  0  0  0  0  0  0  0  0  0  0
    9.1107   10.3880   21.3769 N   0  0  0  0  0  0  0  0  0  0  0  0
    3.9102    9.2008   20.3124 C   0  0  0  0  0  0  0  0  0  0  0  0
   12.7292   10.9960   18.4597 C   0  0  0  0  0  0  0  0  0  0  0  0
    9.3798    6.6793   23.6625 C   0  0  0  0  0  0  0  0  0  0  0  0
   14.7425   10.0739   19.0802 O   0  0  0  0  0  0  0  0  0  0  0  0
    5.1894    9.4673   20.7118 C   0  0  0  0  0  0  0  0  0  0  0  0
    7.3773    8.8224   21.4870 C   0  0  0  0  0  0  0  0  0  0  0  0
    8.4391    6.6439   21.0235 C   0  0  0  0  0  0  0  0  0  0  0  0
    9.6494   11.1353   20.4167 C   0  0  0  0  0  0  0  0  0  0  0  0
    8.1431    7.6829   21.9046 C   0  0  0  0  0  0  0  0  0  0  0  0
    7.7796   10.1314   21.5115 N   0  0  0  0  0  0  0  0  0  0  0  0
    9.2768    5.6183   21.4437 C   0  0  0  0  0  0  0  0  0  0  0  0
    8.6315    7.7322   23.1768 C   0  0  0  0  0  0  0  0  0  0  0  0
   13.0537    9.9821   20.5781 C   0  0  0  0  0  0  0  0  0  0  0  0
   10.3850    4.6575   23.2386 O   0  0  0  0  0  0  0  0  0  0  0  0
    4.2069    6.8450   20.7994 C   0  0  0  0  0  0  0  0  0  0  0  0
    3.0726   10.1043   19.8522 O   0  0  0  0  0  0  0  0  0  0  0  0
    5.5057    7.1196   21.1155 C   0  0  0  0  0  0  0  0  0  0  0  0
    7.0367   11.0229   21.9948 O   0  0  0  0  0  0  0  0  0  0  0  0
  1  8  4  0
  1 12  4  0
  2  9  1  0
  2 11  4  0
  2 25  4  0
  3 12  4  0
  3 14  1  0
  3 23  4  0
  4 13  4  0
  4 21  4  0
  4 24  1  0
  5  8  4  0
  5 23  4  0
  6 18  2  0
  7 15  4  0
  7 16  1  0
  7 27  4  0
  8 18  1  0
 10 18  1  0
 10 20  1  0
 11 15  4  0
 11 26  1  0
 13 22  4  0
 16 19  1  0
 16 20  2  0
 17 19  4  0
 17 21  4  0
 19 22  4  0
 20 28  1  0
 25 27  4  0
M  END
$$$$

 Created by Python create_sdf_string function

 28 30  0  0  0  0  0  0  0  0999 V2000
   11.4592   11.2893   18.7941 C   0  0  0  0  0  0  0  0  0  0  0  0
    3.4202    7.9009   20.3866 C   0  0  0  0  0  0  0  0  0  0  0  0
   13.5280   10.3522   19.3586 C   0  0  0  0  0  0  0  0  0  0  0  0
    9.6923    5.6468   22.7891 C   0  0  0  0  0  0  0  0  0  0  0  0
   11.7756   10.2554   20.8841 N   0  0  0  0  0  0  0  0  0  0  0  0
    8.9876   11.9370   19.8757 O   0  0  0  0  0  0  0  0  0  0  0  0
    6.0167    8.4478   21.1089 C   0  0  0  0  0  0  0  0  0  0  0  0
   11.0002   10.8890   20.0262 C   0  0  0  0  0  0  0  0  0  0  0  0
    2.1721    7.7393   20.0315 O   0  0  0  0  0  0  0  0  0  0  0  0
    9.1107   10.3880   21.3769 N   0  0  0  0  0  0  0  0  0  0  0  0
    3.9102    9.2008   20.3124 C   0  0  0  0  0  0  0  0  0  0  0  0
   12.7292   10.9960   18.4597 C   0  0  0  0  0  0  0  0  0  0  0  0
    9.3798    6.6793   23.6625 C   0  0  0  0  0  0  0  0  0  0  0  0
   14.7425   10.0739   19.0802 O   0  0  0  0  0  0  0  0  0  0  0  0
    5.1894    9.4673   20.7118 C   0  0  0  0  0  0  0  0  0  0  0  0
    7.3773    8.8224   21.4870 C   0  0  0  0  0  0  0  0  0  0  0  0
    8.4391    6.6439   21.0235 C   0  0  0  0  0  0  0  0  0  0  0  0
    9.6494   11.1353   20.4167 C   0  0  0  0  0  0  0  0  0  0  0  0
    8.1431    7.6829   21.9046 C   0  0  0  0  0  0  0  0  0  0  0  0
    7.7796   10.1314   21.5115 N   0  0  0  0  0  0  0  0  0  0  0  0
    9.2768    5.6183   21.4437 C   0  0  0  0  0  0  0  0  0  0  0  0
    8.6315    7.7322   23.1768 C   0  0  0  0  0  0  0  0  0  0  0  0
   13.0537    9.9821   20.5781 C   0  0  0  0  0  0  0  0  0  0  0  0
   10.3850    4.6575   23.2386 O   0  0  0  0  0  0  0  0  0  0  0  0
    4.2069    6.8450   20.7994 C   0  0  0  0  0  0  0  0  0  0  0  0
    3.0726   10.1043   19.8522 O   0  0  0  0  0  0  0  0  0  0  0  0
    5.5057    7.1196   21.1155 C   0  0  0  0  0  0  0  0  0  0  0  0
    7.0367   11.0229   21.9948 O   0  0  0  0  0  0  0  0  0  0  0  0
  1  8  4  0
  1 12  4  0
  2  9  1  0
  2 11  4  0
  2 25  4  0
  3 12  4  0
  3 14  1  0
  3 23  4  0
  4 13  4  0
  4 21  4  0
  4 24  1  0
  5  8  4  0
  5 23  4  0
  6 18  2  0
  7 15  4  0
  7 16  1  0
  7 27  4  0
  8 18  1  0
 10 18  1  0
 10 20  1  0
 11 15  4  0
 11 26  1  0
 13 22  4  0
 16 19  1  0
 16 20  2  0
 17 19  4  0
 17 21  4  0
 19 22  4  0
 20 28  1  0
 25 27  4  0
M  END
$$$$

 Created by Python create_sdf_string function

 28 30  0  0  0  0  0  0  0  0999 V2000
   11.4592   11.2893   18.7941 C   0  0  0  0  0  0  0  0  0  0  0  0
    3.4202    7.9009   20.3866 C   0  0  0  0  0  0  0  0  0  0  0  0
   13.5280   10.3522   19.3586 C   0  0  0  0  0  0  0  0  0  0  0  0
    9.6923    5.6468   22.7891 C   0  0  0  0  0  0  0  0  0  0  0  0
   11.7756   10.2554   20.8841 N   0  0  0  0  0  0  0  0  0  0  0  0
    8.9876   11.9370   19.8757 O   0  0  0  0  0  0  0  0  0  0  0  0
    6.0167    8.4478   21.1089 C   0  0  0  0  0  0  0  0  0  0  0  0
   11.0002   10.8890   20.0262 C   0  0  0  0  0  0  0  0  0  0  0  0
    2.1721    7.7393   20.0315 O   0  0  0  0  0  0  0  0  0  0  0  0
    9.1107   10.3880   21.3769 N   0  0  0  0  0  0  0  0  0  0  0  0
    3.9102    9.2008   20.3124 C   0  0  0  0  0  0  0  0  0  0  0  0
   12.7292   10.9960   18.4597 C   0  0  0  0  0  0  0  0  0  0  0  0
    9.3798    6.6793   23.6625 C   0  0  0  0  0  0  0  0  0  0  0  0
   14.7425   10.0739   19.0802 O   0  0  0  0  0  0  0  0  0  0  0  0
    5.1894    9.4673   20.7118 C   0  0  0  0  0  0  0  0  0  0  0  0
    7.3773    8.8224   21.4870 C   0  0  0  0  0  0  0  0  0  0  0  0
    8.4391    6.6439   21.0235 C   0  0  0  0  0  0  0  0  0  0  0  0
    9.6494   11.1353   20.4167 C   0  0  0  0  0  0  0  0  0  0  0  0
    8.1431    7.6829   21.9046 C   0  0  0  0  0  0  0  0  0  0  0  0
    7.7796   10.1314   21.5115 N   0  0  0  0  0  0  0  0  0  0  0  0
    9.2768    5.6183   21.4437 C   0  0  0  0  0  0  0  0  0  0  0  0
    8.6315    7.7322   23.1768 C   0  0  0  0  0  0  0  0  0  0  0  0
   13.0537    9.9821   20.5781 C   0  0  0  0  0  0  0  0  0  0  0  0
   10.3850    4.6575   23.2386 O   0  0  0  0  0  0  0  0  0  0  0  0
    4.2069    6.8450   20.7994 C   0  0  0  0  0  0  0  0  0  0  0  0
    3.0726   10.1043   19.8522 O   0  0  0  0  0  0  0  0  0  0  0  0
    5.5057    7.1196   21.1155 C   0  0  0  0  0  0  0  0  0  0  0  0
    7.0367   11.0229   21.9948 O   0  0  0  0  0  0  0  0  0  0  0  0
  1  8  4  0
  1 12  4  0
  2  9  1  0
  2 11  4  0
  2 25  4  0
  3 12  4  0
  3 14  1  0
  3 23  4  0
  4 13  4  0
  4 21  4  0
  4 24  1  0
  5  8  4  0
  5 23  4  0
  6 18  2  0
  7 15  4  0
  7 16  1  0
  7 27  4  0
  8 18  1  0
 10 18  1  0
 10 20  1  0
 11 15  4  0
 11 26  1  0
 13 22  4  0
 16 19  1  0
 16 20  2  0
 17 19  4  0
 17 21  4  0
 19 22  4  0
 20 28  1  0
 25 27  4  0
M  END
$$$$

 Created by Python create_sdf_string function

 28 30  0  0  0  0  0  0  0  0999 V2000
   11.4592   11.2893   18.7941 C   0  0  0  0  0  0  0  0  0  0  0  0
    3.4202    7.9009   20.3866 C   0  0  0  0  0  0  0  0  0  0  0  0
   13.5280   10.3522   19.3586 C   0  0  0  0  0  0  0  0  0  0  0  0
    9.6923    5.6468   22.7891 C   0  0  0  0  0  0  0  0  0  0  0  0
   11.7756   10.2554   20.8841 N   0  0  0  0  0  0  0  0  0  0  0  0
    8.9876   11.9370   19.8757 O   0  0  0  0  0  0  0  0  0  0  0  0
    6.0167    8.4478   21.1089 C   0  0  0  0  0  0  0  0  0  0  0  0
   11.0002   10.8890   20.0262 C   0  0  0  0  0  0  0  0  0  0  0  0
    2.1721    7.7393   20.0315 O   0  0  0  0  0  0  0  0  0  0  0  0
    9.1107   10.3880   21.3769 N   0  0  0  0  0  0  0  0  0  0  0  0
    3.9102    9.2008   20.3124 C   0  0  0  0  0  0  0  0  0  0  0  0
   12.7292   10.9960   18.4597 C   0  0  0  0  0  0  0  0  0  0  0  0
    9.3798    6.6793   23.6625 C   0  0  0  0  0  0  0  0  0  0  0  0
   14.7425   10.0739   19.0802 O   0  0  0  0  0  0  0  0  0  0  0  0
    5.1894    9.4673   20.7118 C   0  0  0  0  0  0  0  0  0  0  0  0
    7.3773    8.8224   21.4870 C   0  0  0  0  0  0  0  0  0  0  0  0
    8.4391    6.6439   21.0235 C   0  0  0  0  0  0  0  0  0  0  0  0
    9.6494   11.1353   20.4167 C   0  0  0  0  0  0  0  0  0  0  0  0
    8.1431    7.6829   21.9046 C   0  0  0  0  0  0  0  0  0  0  0  0
    7.7796   10.1314   21.5115 N   0  0  0  0  0  0  0  0  0  0  0  0
    9.2768    5.6183   21.4437 C   0  0  0  0  0  0  0  0  0  0  0  0
    8.6315    7.7322   23.1768 C   0  0  0  0  0  0  0  0  0  0  0  0
   13.0537    9.9821   20.5781 C   0  0  0  0  0  0  0  0  0  0  0  0
   10.3850    4.6575   23.2386 O   0  0  0  0  0  0  0  0  0  0  0  0
    4.2069    6.8450   20.7994 C   0  0  0  0  0  0  0  0  0  0  0  0
    3.0726   10.1043   19.8522 O   0  0  0  0  0  0  0  0  0  0  0  0
    5.5057    7.1196   21.1155 C   0  0  0  0  0  0  0  0  0  0  0  0
    7.0367   11.0229   21.9948 O   0  0  0  0  0  0  0  0  0  0  0  0
  1  8  4  0
  1 12  4  0
  2  9  1  0
  2 11  4  0
  2 25  4  0
  3 12  4  0
  3 14  1  0
  3 23  4  0
  4 13  4  0
  4 21  4  0
  4 24  1  0
  5  8  4  0
  5 23  4  0
  6 18  2  0
  7 15  4  0
  7 16  1  0
  7 27  4  0
  8 18  1  0
 10 18  1  0
 10 20  1  0
 11 15  4  0
 11 26  1  0
 13 22  4  0
 16 19  1  0
 16 20  2  0
 17 19  4  0
 17 21  4  0
 19 22  4  0
 20 28  1  0
 25 27  4  0
M  END
$$$$

 Created by Python create_sdf_string function

 28 30  0  0  0  0  0  0  0  0999 V2000
   11.4592   11.2893   18.7941 C   0  0  0  0  0  0  0  0  0  0  0  0
    3.4202    7.9009   20.3866 C   0  0  0  0  0  0  0  0  0  0  0  0
   13.5280   10.3522   19.3586 C   0  0  0  0  0  0  0  0  0  0  0  0
    9.6923    5.6468   22.7891 C   0  0  0  0  0  0  0  0  0  0  0  0
   11.7756   10.2554   20.8841 N   0  0  0  0  0  0  0  0  0  0  0  0
    8.9876   11.9370   19.8757 O   0  0  0  0  0  0  0  0  0  0  0  0
    6.0167    8.4478   21.1089 C   0  0  0  0  0  0  0  0  0  0  0  0
   11.0002   10.8890   20.0262 C   0  0  0  0  0  0  0  0  0  0  0  0
    2.1721    7.7393   20.0315 O   0  0  0  0  0  0  0  0  0  0  0  0
    9.1107   10.3880   21.3769 N   0  0  0  0  0  0  0  0  0  0  0  0
    3.9102    9.2008   20.3124 C   0  0  0  0  0  0  0  0  0  0  0  0
   12.7292   10.9960   18.4597 C   0  0  0  0  0  0  0  0  0  0  0  0
    9.3798    6.6793   23.6625 C   0  0  0  0  0  0  0  0  0  0  0  0
   14.7425   10.0739   19.0802 O   0  0  0  0  0  0  0  0  0  0  0  0
    5.1894    9.4673   20.7118 C   0  0  0  0  0  0  0  0  0  0  0  0
    7.3773    8.8224   21.4870 C   0  0  0  0  0  0  0  0  0  0  0  0
    8.4391    6.6439   21.0235 C   0  0  0  0  0  0  0  0  0  0  0  0
    9.6494   11.1353   20.4167 C   0  0  0  0  0  0  0  0  0  0  0  0
    8.1431    7.6829   21.9046 C   0  0  0  0  0  0  0  0  0  0  0  0
    7.7796   10.1314   21.5115 N   0  0  0  0  0  0  0  0  0  0  0  0
    9.2768    5.6183   21.4437 C   0  0  0  0  0  0  0  0  0  0  0  0
    8.6315    7.7322   23.1768 C   0  0  0  0  0  0  0  0  0  0  0  0
   13.0537    9.9821   20.5781 C   0  0  0  0  0  0  0  0  0  0  0  0
   10.3850    4.6575   23.2386 O   0  0  0  0  0  0  0  0  0  0  0  0
    4.2069    6.8450   20.7994 C   0  0  0  0  0  0  0  0  0  0  0  0
    3.0726   10.1043   19.8522 O   0  0  0  0  0  0  0  0  0  0  0  0
    5.5057    7.1196   21.1155 C   0  0  0  0  0  0  0  0  0  0  0  0
    7.0367   11.0229   21.9948 O   0  0  0  0  0  0  0  0  0  0  0  0
  1  8  4  0
  1 12  4  0
  2  9  1  0
  2 11  4  0
  2 25  4  0
  3 12  4  0
  3 14  1  0
  3 23  4  0
  4 13  4  0
  4 21  4  0
  4 24  1  0
  5  8  4  0
  5 23  4  0
  6 18  2  0
  7 15  4  0
  7 16  1  0
  7 27  4  0
  8 18  1  0
 10 18  1  0
 10 20  1  0
 11 15  4  0
 11 26  1  0
 13 22  4  0
 16 19  1  0
 16 20  2  0
 17 19  4  0
 17 21  4  0
 19 22  4  0
 20 28  1  0
 25 27  4  0
M  END
$$$$

 Created by Python create_sdf_string function

 28 30  0  0  0  0  0  0  0  0999 V2000
   11.4592   11.2893   18.7941 C   0  0  0  0  0  0  0  0  0  0  0  0
    3.4202    7.9009   20.3866 C   0  0  0  0  0  0  0  0  0  0  0  0
   13.5280   10.3522   19.3586 C   0  0  0  0  0  0  0  0  0  0  0  0
    9.6923    5.6468   22.7891 C   0  0  0  0  0  0  0  0  0  0  0  0
   11.7756   10.2554   20.8841 N   0  0  0  0  0  0  0  0  0  0  0  0
    8.9876   11.9370   19.8757 O   0  0  0  0  0  0  0  0  0  0  0  0
    6.0167    8.4478   21.1089 C   0  0  0  0  0  0  0  0  0  0  0  0
   11.0002   10.8890   20.0262 C   0  0  0  0  0  0  0  0  0  0  0  0
    2.1721    7.7393   20.0315 O   0  0  0  0  0  0  0  0  0  0  0  0
    9.1107   10.3880   21.3769 N   0  0  0  0  0  0  0  0  0  0  0  0
    3.9102    9.2008   20.3124 C   0  0  0  0  0  0  0  0  0  0  0  0
   12.7292   10.9960   18.4597 C   0  0  0  0  0  0  0  0  0  0  0  0
    9.3798    6.6793   23.6625 C   0  0  0  0  0  0  0  0  0  0  0  0
   14.7425   10.0739   19.0802 O   0  0  0  0  0  0  0  0  0  0  0  0
    5.1894    9.4673   20.7118 C   0  0  0  0  0  0  0  0  0  0  0  0
    7.3773    8.8224   21.4870 C   0  0  0  0  0  0  0  0  0  0  0  0
    8.4391    6.6439   21.0235 C   0  0  0  0  0  0  0  0  0  0  0  0
    9.6494   11.1353   20.4167 C   0  0  0  0  0  0  0  0  0  0  0  0
    8.1431    7.6829   21.9046 C   0  0  0  0  0  0  0  0  0  0  0  0
    7.7796   10.1314   21.5115 N   0  0  0  0  0  0  0  0  0  0  0  0
    9.2768    5.6183   21.4437 C   0  0  0  0  0  0  0  0  0  0  0  0
    8.6315    7.7322   23.1768 C   0  0  0  0  0  0  0  0  0  0  0  0
   13.0537    9.9821   20.5781 C   0  0  0  0  0  0  0  0  0  0  0  0
   10.3850    4.6575   23.2386 O   0  0  0  0  0  0  0  0  0  0  0  0
    4.2069    6.8450   20.7994 C   0  0  0  0  0  0  0  0  0  0  0  0
    3.0726   10.1043   19.8522 O   0  0  0  0  0  0  0  0  0  0  0  0
    5.5057    7.1196   21.1155 C   0  0  0  0  0  0  0  0  0  0  0  0
    7.0367   11.0229   21.9948 O   0  0  0  0  0  0  0  0  0  0  0  0
  1  8  4  0
  1 12  4  0
  2  9  1  0
  2 11  4  0
  2 25  4  0
  3 12  4  0
  3 14  1  0
  3 23  4  0
  4 13  4  0
  4 21  4  0
  4 24  1  0
  5  8  4  0
  5 23  4  0
  6 18  2  0
  7 15  4  0
  7 16  1  0
  7 27  4  0
  8 18  1  0
 10 18  1  0
 10 20  1  0
 11 15  4  0
 11 26  1  0
 13 22  4  0
 16 19  1  0
 16 20  2  0
 17 19  4  0
 17 21  4  0
 19 22  4  0
 20 28  1  0
 25 27  4  0
M  END
$$$$

 Created by Python create_sdf_string function

 28 30  0  0  0  0  0  0  0  0999 V2000
   11.4592   11.2893   18.7941 C   0  0  0  0  0  0  0  0  0  0  0  0
    3.4202    7.9009   20.3866 C   0  0  0  0  0  0  0  0  0  0  0  0
   13.5280   10.3522   19.3586 C   0  0  0  0  0  0  0  0  0  0  0  0
    9.6923    5.6468   22.7891 C   0  0  0  0  0  0  0  0  0  0  0  0
   11.7756   10.2554   20.8841 N   0  0  0  0  0  0  0  0  0  0  0  0
    8.9876   11.9370   19.8757 O   0  0  0  0  0  0  0  0  0  0  0  0
    6.0167    8.4478   21.1089 C   0  0  0  0  0  0  0  0  0  0  0  0
   11.0002   10.8890   20.0262 C   0  0  0  0  0  0  0  0  0  0  0  0
    2.1721    7.7393   20.0315 O   0  0  0  0  0  0  0  0  0  0  0  0
    9.1107   10.3880   21.3769 N   0  0  0  0  0  0  0  0  0  0  0  0
    3.9102    9.2008   20.3124 C   0  0  0  0  0  0  0  0  0  0  0  0
   12.7292   10.9960   18.4597 C   0  0  0  0  0  0  0  0  0  0  0  0
    9.3798    6.6793   23.6625 C   0  0  0  0  0  0  0  0  0  0  0  0
   14.7425   10.0739   19.0802 O   0  0  0  0  0  0  0  0  0  0  0  0
    5.1894    9.4673   20.7118 C   0  0  0  0  0  0  0  0  0  0  0  0
    7.3773    8.8224   21.4870 C   0  0  0  0  0  0  0  0  0  0  0  0
    8.4391    6.6439   21.0235 C   0  0  0  0  0  0  0  0  0  0  0  0
    9.6494   11.1353   20.4167 C   0  0  0  0  0  0  0  0  0  0  0  0
    8.1431    7.6829   21.9046 C   0  0  0  0  0  0  0  0  0  0  0  0
    7.7796   10.1314   21.5115 N   0  0  0  0  0  0  0  0  0  0  0  0
    9.2768    5.6183   21.4437 C   0  0  0  0  0  0  0  0  0  0  0  0
    8.6315    7.7322   23.1768 C   0  0  0  0  0  0  0  0  0  0  0  0
   13.0537    9.9821   20.5781 C   0  0  0  0  0  0  0  0  0  0  0  0
   10.3850    4.6575   23.2386 O   0  0  0  0  0  0  0  0  0  0  0  0
    4.2069    6.8450   20.7994 C   0  0  0  0  0  0  0  0  0  0  0  0
    3.0726   10.1043   19.8522 O   0  0  0  0  0  0  0  0  0  0  0  0
    5.5057    7.1196   21.1155 C   0  0  0  0  0  0  0  0  0  0  0  0
    7.0367   11.0229   21.9948 O   0  0  0  0  0  0  0  0  0  0  0  0
  1  8  4  0
  1 12  4  0
  2  9  1  0
  2 11  4  0
  2 25  4  0
  3 12  4  0
  3 14  1  0
  3 23  4  0
  4 13  4  0
  4 21  4  0
  4 24  1  0
  5  8  4  0
  5 23  4  0
  6 18  2  0
  7 15  4  0
  7 16  1  0
  7 27  4  0
  8 18  1  0
 10 18  1  0
 10 20  1  0
 11 15  4  0
 11 26  1  0
 13 22  4  0
 16 19  1  0
 16 20  2  0
 17 19  4  0
 17 21  4  0
 19 22  4  0
 20 28  1  0
 25 27  4  0
M  END
$$$$

 Created by Python create_sdf_string function

 28 30  0  0  0  0  0  0  0  0999 V2000
   11.4592   11.2893   18.7941 C   0  0  0  0  0  0  0  0  0  0  0  0
    3.4202    7.9009   20.3866 C   0  0  0  0  0  0  0  0  0  0  0  0
   13.5280   10.3522   19.3586 C   0  0  0  0  0  0  0  0  0  0  0  0
    9.6923    5.6468   22.7891 C   0  0  0  0  0  0  0  0  0  0  0  0
   11.7756   10.2554   20.8841 N   0  0  0  0  0  0  0  0  0  0  0  0
    8.9876   11.9370   19.8757 O   0  0  0  0  0  0  0  0  0  0  0  0
    6.0167    8.4478   21.1089 C   0  0  0  0  0  0  0  0  0  0  0  0
   11.0002   10.8890   20.0262 C   0  0  0  0  0  0  0  0  0  0  0  0
    2.1721    7.7393   20.0315 O   0  0  0  0  0  0  0  0  0  0  0  0
    9.1107   10.3880   21.3769 N   0  0  0  0  0  0  0  0  0  0  0  0
    3.9102    9.2008   20.3124 C   0  0  0  0  0  0  0  0  0  0  0  0
   12.7292   10.9960   18.4597 C   0  0  0  0  0  0  0  0  0  0  0  0
    9.3798    6.6793   23.6625 C   0  0  0  0  0  0  0  0  0  0  0  0
   14.7425   10.0739   19.0802 O   0  0  0  0  0  0  0  0  0  0  0  0
    5.1894    9.4673   20.7118 C   0  0  0  0  0  0  0  0  0  0  0  0
    7.3773    8.8224   21.4870 C   0  0  0  0  0  0  0  0  0  0  0  0
    8.4391    6.6439   21.0235 C   0  0  0  0  0  0  0  0  0  0  0  0
    9.6494   11.1353   20.4167 C   0  0  0  0  0  0  0  0  0  0  0  0
    8.1431    7.6829   21.9046 C   0  0  0  0  0  0  0  0  0  0  0  0
    7.7796   10.1314   21.5115 N   0  0  0  0  0  0  0  0  0  0  0  0
    9.2768    5.6183   21.4437 C   0  0  0  0  0  0  0  0  0  0  0  0
    8.6315    7.7322   23.1768 C   0  0  0  0  0  0  0  0  0  0  0  0
   13.0537    9.9821   20.5781 C   0  0  0  0  0  0  0  0  0  0  0  0
   10.3850    4.6575   23.2386 O   0  0  0  0  0  0  0  0  0  0  0  0
    4.2069    6.8450   20.7994 C   0  0  0  0  0  0  0  0  0  0  0  0
    3.0726   10.1043   19.8522 O   0  0  0  0  0  0  0  0  0  0  0  0
    5.5057    7.1196   21.1155 C   0  0  0  0  0  0  0  0  0  0  0  0
    7.0367   11.0229   21.9948 O   0  0  0  0  0  0  0  0  0  0  0  0
  1  8  4  0
  1 12  4  0
  2  9  1  0
  2 11  4  0
  2 25  4  0
  3 12  4  0
  3 14  1  0
  3 23  4  0
  4 13  4  0
  4 21  4  0
  4 24  1  0
  5  8  4  0
  5 23  4  0
  6 18  2  0
  7 15  4  0
  7 16  1  0
  7 27  4  0
  8 18  1  0
 10 18  1  0
 10 20  1  0
 11 15  4  0
 11 26  1  0
 13 22  4  0
 16 19  1  0
 16 20  2  0
 17 19  4  0
 17 21  4  0
 19 22  4  0
 20 28  1  0
 25 27  4  0
M  END
$$$$

 Created by Python create_sdf_string function

 28 30  0  0  0  0  0  0  0  0999 V2000
   11.4592   11.2893   18.7941 C   0  0  0  0  0  0  0  0  0  0  0  0
    3.4202    7.9009   20.3866 C   0  0  0  0  0  0  0  0  0  0  0  0
   13.5280   10.3522   19.3586 C   0  0  0  0  0  0  0  0  0  0  0  0
    9.6923    5.6468   22.7891 C   0  0  0  0  0  0  0  0  0  0  0  0
   11.7756   10.2554   20.8841 N   0  0  0  0  0  0  0  0  0  0  0  0
    8.9876   11.9370   19.8757 O   0  0  0  0  0  0  0  0  0  0  0  0
    6.0167    8.4478   21.1089 C   0  0  0  0  0  0  0  0  0  0  0  0
   11.0002   10.8890   20.0262 C   0  0  0  0  0  0  0  0  0  0  0  0
    2.1721    7.7393   20.0315 O   0  0  0  0  0  0  0  0  0  0  0  0
    9.1107   10.3880   21.3769 N   0  0  0  0  0  0  0  0  0  0  0  0
    3.9102    9.2008   20.3124 C   0  0  0  0  0  0  0  0  0  0  0  0
   12.7292   10.9960   18.4597 C   0  0  0  0  0  0  0  0  0  0  0  0
    9.3798    6.6793   23.6625 C   0  0  0  0  0  0  0  0  0  0  0  0
   14.7425   10.0739   19.0802 O   0  0  0  0  0  0  0  0  0  0  0  0
    5.1894    9.4673   20.7118 C   0  0  0  0  0  0  0  0  0  0  0  0
    7.3773    8.8224   21.4870 C   0  0  0  0  0  0  0  0  0  0  0  0
    8.4391    6.6439   21.0235 C   0  0  0  0  0  0  0  0  0  0  0  0
    9.6494   11.1353   20.4167 C   0  0  0  0  0  0  0  0  0  0  0  0
    8.1431    7.6829   21.9046 C   0  0  0  0  0  0  0  0  0  0  0  0
    7.7796   10.1314   21.5115 N   0  0  0  0  0  0  0  0  0  0  0  0
    9.2768    5.6183   21.4437 C   0  0  0  0  0  0  0  0  0  0  0  0
    8.6315    7.7322   23.1768 C   0  0  0  0  0  0  0  0  0  0  0  0
   13.0537    9.9821   20.5781 C   0  0  0  0  0  0  0  0  0  0  0  0
   10.3850    4.6575   23.2386 O   0  0  0  0  0  0  0  0  0  0  0  0
    4.2069    6.8450   20.7994 C   0  0  0  0  0  0  0  0  0  0  0  0
    3.0726   10.1043   19.8522 O   0  0  0  0  0  0  0  0  0  0  0  0
    5.5057    7.1196   21.1155 C   0  0  0  0  0  0  0  0  0  0  0  0
    7.0367   11.0229   21.9948 O   0  0  0  0  0  0  0  0  0  0  0  0
  1  8  4  0
  1 12  4  0
  2  9  1  0
  2 11  4  0
  2 25  4  0
  3 12  4  0
  3 14  1  0
  3 23  4  0
  4 13  4  0
  4 21  4  0
  4 24  1  0
  5  8  4  0
  5 23  4  0
  6 18  2  0
  7 15  4  0
  7 16  1  0
  7 27  4  0
  8 18  1  0
 10 18  1  0
 10 20  1  0
 11 15  4  0
 11 26  1  0
 13 22  4  0
 16 19  1  0
 16 20  2  0
 17 19  4  0
 17 21  4  0
 19 22  4  0
 20 28  1  0
 25 27  4  0
M  END
$$$$

 Created by Python create_sdf_string function

 28 30  0  0  0  0  0  0  0  0999 V2000
   11.4592   11.2893   18.7941 C   0  0  0  0  0  0  0  0  0  0  0  0
    3.4202    7.9009   20.3866 C   0  0  0  0  0  0  0  0  0  0  0  0
   13.5280   10.3522   19.3586 C   0  0  0  0  0  0  0  0  0  0  0  0
    9.6923    5.6468   22.7891 C   0  0  0  0  0  0  0  0  0  0  0  0
   11.7756   10.2554   20.8841 N   0  0  0  0  0  0  0  0  0  0  0  0
    8.9876   11.9370   19.8757 O   0  0  0  0  0  0  0  0  0  0  0  0
    6.0167    8.4478   21.1089 C   0  0  0  0  0  0  0  0  0  0  0  0
   11.0002   10.8890   20.0262 C   0  0  0  0  0  0  0  0  0  0  0  0
    2.1721    7.7393   20.0315 O   0  0  0  0  0  0  0  0  0  0  0  0
    9.1107   10.3880   21.3769 N   0  0  0  0  0  0  0  0  0  0  0  0
    3.9102    9.2008   20.3124 C   0  0  0  0  0  0  0  0  0  0  0  0
   12.7292   10.9960   18.4597 C   0  0  0  0  0  0  0  0  0  0  0  0
    9.3798    6.6793   23.6625 C   0  0  0  0  0  0  0  0  0  0  0  0
   14.7425   10.0739   19.0802 O   0  0  0  0  0  0  0  0  0  0  0  0
    5.1894    9.4673   20.7118 C   0  0  0  0  0  0  0  0  0  0  0  0
    7.3773    8.8224   21.4870 C   0  0  0  0  0  0  0  0  0  0  0  0
    8.4391    6.6439   21.0235 C   0  0  0  0  0  0  0  0  0  0  0  0
    9.6494   11.1353   20.4167 C   0  0  0  0  0  0  0  0  0  0  0  0
    8.1431    7.6829   21.9046 C   0  0  0  0  0  0  0  0  0  0  0  0
    7.7796   10.1314   21.5115 N   0  0  0  0  0  0  0  0  0  0  0  0
    9.2768    5.6183   21.4437 C   0  0  0  0  0  0  0  0  0  0  0  0
    8.6315    7.7322   23.1768 C   0  0  0  0  0  0  0  0  0  0  0  0
   13.0537    9.9821   20.5781 C   0  0  0  0  0  0  0  0  0  0  0  0
   10.3850    4.6575   23.2386 O   0  0  0  0  0  0  0  0  0  0  0  0
    4.2069    6.8450   20.7994 C   0  0  0  0  0  0  0  0  0  0  0  0
    3.0726   10.1043   19.8522 O   0  0  0  0  0  0  0  0  0  0  0  0
    5.5057    7.1196   21.1155 C   0  0  0  0  0  0  0  0  0  0  0  0
    7.0367   11.0229   21.9948 O   0  0  0  0  0  0  0  0  0  0  0  0
  1  8  4  0
  1 12  4  0
  2  9  1  0
  2 11  4  0
  2 25  4  0
  3 12  4  0
  3 14  1  0
  3 23  4  0
  4 13  4  0
  4 21  4  0
  4 24  1  0
  5  8  4  0
  5 23  4  0
  6 18  2  0
  7 15  4  0
  7 16  1  0
  7 27  4  0
  8 18  1  0
 10 18  1  0
 10 20  1  0
 11 15  4  0
 11 26  1  0
 13 22  4  0
 16 19  1  0
 16 20  2  0
 17 19  4  0
 17 21  4  0
 19 22  4  0
 20 28  1  0
 25 27  4  0
M  END
$$$$

 Created by Python create_sdf_string function

 28 30  0  0  0  0  0  0  0  0999 V2000
   11.4592   11.2893   18.7941 C   0  0  0  0  0  0  0  0  0  0  0  0
    3.4202    7.9009   20.3866 C   0  0  0  0  0  0  0  0  0  0  0  0
   13.5280   10.3522   19.3586 C   0  0  0  0  0  0  0  0  0  0  0  0
    9.6923    5.6468   22.7891 C   0  0  0  0  0  0  0  0  0  0  0  0
   11.7756   10.2554   20.8841 N   0  0  0  0  0  0  0  0  0  0  0  0
    8.9876   11.9370   19.8757 O   0  0  0  0  0  0  0  0  0  0  0  0
    6.0167    8.4478   21.1089 C   0  0  0  0  0  0  0  0  0  0  0  0
   11.0002   10.8890   20.0262 C   0  0  0  0  0  0  0  0  0  0  0  0
    2.1721    7.7393   20.0315 O   0  0  0  0  0  0  0  0  0  0  0  0
    9.1107   10.3880   21.3769 N   0  0  0  0  0  0  0  0  0  0  0  0
    3.9102    9.2008   20.3124 C   0  0  0  0  0  0  0  0  0  0  0  0
   12.7292   10.9960   18.4597 C   0  0  0  0  0  0  0  0  0  0  0  0
    9.3798    6.6793   23.6625 C   0  0  0  0  0  0  0  0  0  0  0  0
   14.7425   10.0739   19.0802 O   0  0  0  0  0  0  0  0  0  0  0  0
    5.1894    9.4673   20.7118 C   0  0  0  0  0  0  0  0  0  0  0  0
    7.3773    8.8224   21.4870 C   0  0  0  0  0  0  0  0  0  0  0  0
    8.4391    6.6439   21.0235 C   0  0  0  0  0  0  0  0  0  0  0  0
    9.6494   11.1353   20.4167 C   0  0  0  0  0  0  0  0  0  0  0  0
    8.1431    7.6829   21.9046 C   0  0  0  0  0  0  0  0  0  0  0  0
    7.7796   10.1314   21.5115 N   0  0  0  0  0  0  0  0  0  0  0  0
    9.2768    5.6183   21.4437 C   0  0  0  0  0  0  0  0  0  0  0  0
    8.6315    7.7322   23.1768 C   0  0  0  0  0  0  0  0  0  0  0  0
   13.0537    9.9821   20.5781 C   0  0  0  0  0  0  0  0  0  0  0  0
   10.3850    4.6575   23.2386 O   0  0  0  0  0  0  0  0  0  0  0  0
    4.2069    6.8450   20.7994 C   0  0  0  0  0  0  0  0  0  0  0  0
    3.0726   10.1043   19.8522 O   0  0  0  0  0  0  0  0  0  0  0  0
    5.5057    7.1196   21.1155 C   0  0  0  0  0  0  0  0  0  0  0  0
    7.0367   11.0229   21.9948 O   0  0  0  0  0  0  0  0  0  0  0  0
  1  8  4  0
  1 12  4  0
  2  9  1  0
  2 11  4  0
  2 25  4  0
  3 12  4  0
  3 14  1  0
  3 23  4  0
  4 13  4  0
  4 21  4  0
  4 24  1  0
  5  8  4  0
  5 23  4  0
  6 18  2  0
  7 15  4  0
  7 16  1  0
  7 27  4  0
  8 18  1  0
 10 18  1  0
 10 20  1  0
 11 15  4  0
 11 26  1  0
 13 22  4  0
 16 19  1  0
 16 20  2  0
 17 19  4  0
 17 21  4  0
 19 22  4  0
 20 28  1  0
 25 27  4  0
M  END
$$$$

 Created by Python create_sdf_string function

 28 30  0  0  0  0  0  0  0  0999 V2000
   11.4592   11.2893   18.7941 C   0  0  0  0  0  0  0  0  0  0  0  0
    3.4202    7.9009   20.3866 C   0  0  0  0  0  0  0  0  0  0  0  0
   13.5280   10.3522   19.3586 C   0  0  0  0  0  0  0  0  0  0  0  0
    9.6923    5.6468   22.7891 C   0  0  0  0  0  0  0  0  0  0  0  0
   11.7756   10.2554   20.8841 N   0  0  0  0  0  0  0  0  0  0  0  0
    8.9876   11.9370   19.8757 O   0  0  0  0  0  0  0  0  0  0  0  0
    6.0167    8.4478   21.1089 C   0  0  0  0  0  0  0  0  0  0  0  0
   11.0002   10.8890   20.0262 C   0  0  0  0  0  0  0  0  0  0  0  0
    2.1721    7.7393   20.0315 O   0  0  0  0  0  0  0  0  0  0  0  0
    9.1107   10.3880   21.3769 N   0  0  0  0  0  0  0  0  0  0  0  0
    3.9102    9.2008   20.3124 C   0  0  0  0  0  0  0  0  0  0  0  0
   12.7292   10.9960   18.4597 C   0  0  0  0  0  0  0  0  0  0  0  0
    9.3798    6.6793   23.6625 C   0  0  0  0  0  0  0  0  0  0  0  0
   14.7425   10.0739   19.0802 O   0  0  0  0  0  0  0  0  0  0  0  0
    5.1894    9.4673   20.7118 C   0  0  0  0  0  0  0  0  0  0  0  0
    7.3773    8.8224   21.4870 C   0  0  0  0  0  0  0  0  0  0  0  0
    8.4391    6.6439   21.0235 C   0  0  0  0  0  0  0  0  0  0  0  0
    9.6494   11.1353   20.4167 C   0  0  0  0  0  0  0  0  0  0  0  0
    8.1431    7.6829   21.9046 C   0  0  0  0  0  0  0  0  0  0  0  0
    7.7796   10.1314   21.5115 N   0  0  0  0  0  0  0  0  0  0  0  0
    9.2768    5.6183   21.4437 C   0  0  0  0  0  0  0  0  0  0  0  0
    8.6315    7.7322   23.1768 C   0  0  0  0  0  0  0  0  0  0  0  0
   13.0537    9.9821   20.5781 C   0  0  0  0  0  0  0  0  0  0  0  0
   10.3850    4.6575   23.2386 O   0  0  0  0  0  0  0  0  0  0  0  0
    4.2069    6.8450   20.7994 C   0  0  0  0  0  0  0  0  0  0  0  0
    3.0726   10.1043   19.8522 O   0  0  0  0  0  0  0  0  0  0  0  0
    5.5057    7.1196   21.1155 C   0  0  0  0  0  0  0  0  0  0  0  0
    7.0367   11.0229   21.9948 O   0  0  0  0  0  0  0  0  0  0  0  0
  1  8  4  0
  1 12  4  0
  2  9  1  0
  2 11  4  0
  2 25  4  0
  3 12  4  0
  3 14  1  0
  3 23  4  0
  4 13  4  0
  4 21  4  0
  4 24  1  0
  5  8  4  0
  5 23  4  0
  6 18  2  0
  7 15  4  0
  7 16  1  0
  7 27  4  0
  8 18  1  0
 10 18  1  0
 10 20  1  0
 11 15  4  0
 11 26  1  0
 13 22  4  0
 16 19  1  0
 16 20  2  0
 17 19  4  0
 17 21  4  0
 19 22  4  0
 20 28  1  0
 25 27  4  0
M  END
$$$$

 Created by Python create_sdf_string function

 28 30  0  0  0  0  0  0  0  0999 V2000
   11.4592   11.2893   18.7941 C   0  0  0  0  0  0  0  0  0  0  0  0
    3.4202    7.9009   20.3866 C   0  0  0  0  0  0  0  0  0  0  0  0
   13.5280   10.3522   19.3586 C   0  0  0  0  0  0  0  0  0  0  0  0
    9.6923    5.6468   22.7891 C   0  0  0  0  0  0  0  0  0  0  0  0
   11.7756   10.2554   20.8841 N   0  0  0  0  0  0  0  0  0  0  0  0
    8.9876   11.9370   19.8757 O   0  0  0  0  0  0  0  0  0  0  0  0
    6.0167    8.4478   21.1089 C   0  0  0  0  0  0  0  0  0  0  0  0
   11.0002   10.8890   20.0262 C   0  0  0  0  0  0  0  0  0  0  0  0
    2.1721    7.7393   20.0315 O   0  0  0  0  0  0  0  0  0  0  0  0
    9.1107   10.3880   21.3769 N   0  0  0  0  0  0  0  0  0  0  0  0
    3.9102    9.2008   20.3124 C   0  0  0  0  0  0  0  0  0  0  0  0
   12.7292   10.9960   18.4597 C   0  0  0  0  0  0  0  0  0  0  0  0
    9.3798    6.6793   23.6625 C   0  0  0  0  0  0  0  0  0  0  0  0
   14.7425   10.0739   19.0802 O   0  0  0  0  0  0  0  0  0  0  0  0
    5.1894    9.4673   20.7118 C   0  0  0  0  0  0  0  0  0  0  0  0
    7.3773    8.8224   21.4870 C   0  0  0  0  0  0  0  0  0  0  0  0
    8.4391    6.6439   21.0235 C   0  0  0  0  0  0  0  0  0  0  0  0
    9.6494   11.1353   20.4167 C   0  0  0  0  0  0  0  0  0  0  0  0
    8.1431    7.6829   21.9046 C   0  0  0  0  0  0  0  0  0  0  0  0
    7.7796   10.1314   21.5115 N   0  0  0  0  0  0  0  0  0  0  0  0
    9.2768    5.6183   21.4437 C   0  0  0  0  0  0  0  0  0  0  0  0
    8.6315    7.7322   23.1768 C   0  0  0  0  0  0  0  0  0  0  0  0
   13.0537    9.9821   20.5781 C   0  0  0  0  0  0  0  0  0  0  0  0
   10.3850    4.6575   23.2386 O   0  0  0  0  0  0  0  0  0  0  0  0
    4.2069    6.8450   20.7994 C   0  0  0  0  0  0  0  0  0  0  0  0
    3.0726   10.1043   19.8522 O   0  0  0  0  0  0  0  0  0  0  0  0
    5.5057    7.1196   21.1155 C   0  0  0  0  0  0  0  0  0  0  0  0
    7.0367   11.0229   21.9948 O   0  0  0  0  0  0  0  0  0  0  0  0
  1  8  4  0
  1 12  4  0
  2  9  1  0
  2 11  4  0
  2 25  4  0
  3 12  4  0
  3 14  1  0
  3 23  4  0
  4 13  4  0
  4 21  4  0
  4 24  1  0
  5  8  4  0
  5 23  4  0
  6 18  2  0
  7 15  4  0
  7 16  1  0
  7 27  4  0
  8 18  1  0
 10 18  1  0
 10 20  1  0
 11 15  4  0
 11 26  1  0
 13 22  4  0
 16 19  1  0
 16 20  2  0
 17 19  4  0
 17 21  4  0
 19 22  4  0
 20 28  1  0
 25 27  4  0
M  END
$$$$

 Created by Python create_sdf_string function

 28 30  0  0  0  0  0  0  0  0999 V2000
   11.4592   11.2893   18.7941 C   0  0  0  0  0  0  0  0  0  0  0  0
    3.4202    7.9009   20.3866 C   0  0  0  0  0  0  0  0  0  0  0  0
   13.5280   10.3522   19.3586 C   0  0  0  0  0  0  0  0  0  0  0  0
    9.6923    5.6468   22.7891 C   0  0  0  0  0  0  0  0  0  0  0  0
   11.7756   10.2554   20.8841 N   0  0  0  0  0  0  0  0  0  0  0  0
    8.9876   11.9370   19.8757 O   0  0  0  0  0  0  0  0  0  0  0  0
    6.0167    8.4478   21.1089 C   0  0  0  0  0  0  0  0  0  0  0  0
   11.0002   10.8890   20.0262 C   0  0  0  0  0  0  0  0  0  0  0  0
    2.1721    7.7393   20.0315 O   0  0  0  0  0  0  0  0  0  0  0  0
    9.1107   10.3880   21.3769 N   0  0  0  0  0  0  0  0  0  0  0  0
    3.9102    9.2008   20.3124 C   0  0  0  0  0  0  0  0  0  0  0  0
   12.7292   10.9960   18.4597 C   0  0  0  0  0  0  0  0  0  0  0  0
    9.3798    6.6793   23.6625 C   0  0  0  0  0  0  0  0  0  0  0  0
   14.7425   10.0739   19.0802 O   0  0  0  0  0  0  0  0  0  0  0  0
    5.1894    9.4673   20.7118 C   0  0  0  0  0  0  0  0  0  0  0  0
    7.3773    8.8224   21.4870 C   0  0  0  0  0  0  0  0  0  0  0  0
    8.4391    6.6439   21.0235 C   0  0  0  0  0  0  0  0  0  0  0  0
    9.6494   11.1353   20.4167 C   0  0  0  0  0  0  0  0  0  0  0  0
    8.1431    7.6829   21.9046 C   0  0  0  0  0  0  0  0  0  0  0  0
    7.7796   10.1314   21.5115 N   0  0  0  0  0  0  0  0  0  0  0  0
    9.2768    5.6183   21.4437 C   0  0  0  0  0  0  0  0  0  0  0  0
    8.6315    7.7322   23.1768 C   0  0  0  0  0  0  0  0  0  0  0  0
   13.0537    9.9821   20.5781 C   0  0  0  0  0  0  0  0  0  0  0  0
   10.3850    4.6575   23.2386 O   0  0  0  0  0  0  0  0  0  0  0  0
    4.2069    6.8450   20.7994 C   0  0  0  0  0  0  0  0  0  0  0  0
    3.0726   10.1043   19.8522 O   0  0  0  0  0  0  0  0  0  0  0  0
    5.5057    7.1196   21.1155 C   0  0  0  0  0  0  0  0  0  0  0  0
    7.0367   11.0229   21.9948 O   0  0  0  0  0  0  0  0  0  0  0  0
  1  8  4  0
  1 12  4  0
  2  9  1  0
  2 11  4  0
  2 25  4  0
  3 12  4  0
  3 14  1  0
  3 23  4  0
  4 13  4  0
  4 21  4  0
  4 24  1  0
  5  8  4  0
  5 23  4  0
  6 18  2  0
  7 15  4  0
  7 16  1  0
  7 27  4  0
  8 18  1  0
 10 18  1  0
 10 20  1  0
 11 15  4  0
 11 26  1  0
 13 22  4  0
 16 19  1  0
 16 20  2  0
 17 19  4  0
 17 21  4  0
 19 22  4  0
 20 28  1  0
 25 27  4  0
M  END
$$$$

 Created by Python create_sdf_string function

 28 30  0  0  0  0  0  0  0  0999 V2000
   11.4592   11.2893   18.7941 C   0  0  0  0  0  0  0  0  0  0  0  0
    3.4202    7.9009   20.3866 C   0  0  0  0  0  0  0  0  0  0  0  0
   13.5280   10.3522   19.3586 C   0  0  0  0  0  0  0  0  0  0  0  0
    9.6923    5.6468   22.7891 C   0  0  0  0  0  0  0  0  0  0  0  0
   11.7756   10.2554   20.8841 N   0  0  0  0  0  0  0  0  0  0  0  0
    8.9876   11.9370   19.8757 O   0  0  0  0  0  0  0  0  0  0  0  0
    6.0167    8.4478   21.1089 C   0  0  0  0  0  0  0  0  0  0  0  0
   11.0002   10.8890   20.0262 C   0  0  0  0  0  0  0  0  0  0  0  0
    2.1721    7.7393   20.0315 O   0  0  0  0  0  0  0  0  0  0  0  0
    9.1107   10.3880   21.3769 N   0  0  0  0  0  0  0  0  0  0  0  0
    3.9102    9.2008   20.3124 C   0  0  0  0  0  0  0  0  0  0  0  0
   12.7292   10.9960   18.4597 C   0  0  0  0  0  0  0  0  0  0  0  0
    9.3798    6.6793   23.6625 C   0  0  0  0  0  0  0  0  0  0  0  0
   14.7425   10.0739   19.0802 O   0  0  0  0  0  0  0  0  0  0  0  0
    5.1894    9.4673   20.7118 C   0  0  0  0  0  0  0  0  0  0  0  0
    7.3773    8.8224   21.4870 C   0  0  0  0  0  0  0  0  0  0  0  0
    8.4391    6.6439   21.0235 C   0  0  0  0  0  0  0  0  0  0  0  0
    9.6494   11.1353   20.4167 C   0  0  0  0  0  0  0  0  0  0  0  0
    8.1431    7.6829   21.9046 C   0  0  0  0  0  0  0  0  0  0  0  0
    7.7796   10.1314   21.5115 N   0  0  0  0  0  0  0  0  0  0  0  0
    9.2768    5.6183   21.4437 C   0  0  0  0  0  0  0  0  0  0  0  0
    8.6315    7.7322   23.1768 C   0  0  0  0  0  0  0  0  0  0  0  0
   13.0537    9.9821   20.5781 C   0  0  0  0  0  0  0  0  0  0  0  0
   10.3850    4.6575   23.2386 O   0  0  0  0  0  0  0  0  0  0  0  0
    4.2069    6.8450   20.7994 C   0  0  0  0  0  0  0  0  0  0  0  0
    3.0726   10.1043   19.8522 O   0  0  0  0  0  0  0  0  0  0  0  0
    5.5057    7.1196   21.1155 C   0  0  0  0  0  0  0  0  0  0  0  0
    7.0367   11.0229   21.9948 O   0  0  0  0  0  0  0  0  0  0  0  0
  1  8  4  0
  1 12  4  0
  2  9  1  0
  2 11  4  0
  2 25  4  0
  3 12  4  0
  3 14  1  0
  3 23  4  0
  4 13  4  0
  4 21  4  0
  4 24  1  0
  5  8  4  0
  5 23  4  0
  6 18  2  0
  7 15  4  0
  7 16  1  0
  7 27  4  0
  8 18  1  0
 10 18  1  0
 10 20  1  0
 11 15  4  0
 11 26  1  0
 13 22  4  0
 16 19  1  0
 16 20  2  0
 17 19  4  0
 17 21  4  0
 19 22  4  0
 20 28  1  0
 25 27  4  0
M  END
$$$$

 Created by Python create_sdf_string function

 28 30  0  0  0  0  0  0  0  0999 V2000
   11.4592   11.2893   18.7941 C   0  0  0  0  0  0  0  0  0  0  0  0
    3.4202    7.9009   20.3866 C   0  0  0  0  0  0  0  0  0  0  0  0
   13.5280   10.3522   19.3586 C   0  0  0  0  0  0  0  0  0  0  0  0
    9.6923    5.6468   22.7891 C   0  0  0  0  0  0  0  0  0  0  0  0
   11.7756   10.2554   20.8841 N   0  0  0  0  0  0  0  0  0  0  0  0
    8.9876   11.9370   19.8757 O   0  0  0  0  0  0  0  0  0  0  0  0
    6.0167    8.4478   21.1089 C   0  0  0  0  0  0  0  0  0  0  0  0
   11.0002   10.8890   20.0262 C   0  0  0  0  0  0  0  0  0  0  0  0
    2.1721    7.7393   20.0315 O   0  0  0  0  0  0  0  0  0  0  0  0
    9.1107   10.3880   21.3769 N   0  0  0  0  0  0  0  0  0  0  0  0
    3.9102    9.2008   20.3124 C   0  0  0  0  0  0  0  0  0  0  0  0
   12.7292   10.9960   18.4597 C   0  0  0  0  0  0  0  0  0  0  0  0
    9.3798    6.6793   23.6625 C   0  0  0  0  0  0  0  0  0  0  0  0
   14.7425   10.0739   19.0802 O   0  0  0  0  0  0  0  0  0  0  0  0
    5.1894    9.4673   20.7118 C   0  0  0  0  0  0  0  0  0  0  0  0
    7.3773    8.8224   21.4870 C   0  0  0  0  0  0  0  0  0  0  0  0
    8.4391    6.6439   21.0235 C   0  0  0  0  0  0  0  0  0  0  0  0
    9.6494   11.1353   20.4167 C   0  0  0  0  0  0  0  0  0  0  0  0
    8.1431    7.6829   21.9046 C   0  0  0  0  0  0  0  0  0  0  0  0
    7.7796   10.1314   21.5115 N   0  0  0  0  0  0  0  0  0  0  0  0
    9.2768    5.6183   21.4437 C   0  0  0  0  0  0  0  0  0  0  0  0
    8.6315    7.7322   23.1768 C   0  0  0  0  0  0  0  0  0  0  0  0
   13.0537    9.9821   20.5781 C   0  0  0  0  0  0  0  0  0  0  0  0
   10.3850    4.6575   23.2386 O   0  0  0  0  0  0  0  0  0  0  0  0
    4.2069    6.8450   20.7994 C   0  0  0  0  0  0  0  0  0  0  0  0
    3.0726   10.1043   19.8522 O   0  0  0  0  0  0  0  0  0  0  0  0
    5.5057    7.1196   21.1155 C   0  0  0  0  0  0  0  0  0  0  0  0
    7.0367   11.0229   21.9948 O   0  0  0  0  0  0  0  0  0  0  0  0
  1  8  4  0
  1 12  4  0
  2  9  1  0
  2 11  4  0
  2 25  4  0
  3 12  4  0
  3 14  1  0
  3 23  4  0
  4 13  4  0
  4 21  4  0
  4 24  1  0
  5  8  4  0
  5 23  4  0
  6 18  2  0
  7 15  4  0
  7 16  1  0
  7 27  4  0
  8 18  1  0
 10 18  1  0
 10 20  1  0
 11 15  4  0
 11 26  1  0
 13 22  4  0
 16 19  1  0
 16 20  2  0
 17 19  4  0
 17 21  4  0
 19 22  4  0
 20 28  1  0
 25 27  4  0
M  END
$$$$

 Created by Python create_sdf_string function

 28 30  0  0  0  0  0  0  0  0999 V2000
   11.4592   11.2893   18.7941 C   0  0  0  0  0  0  0  0  0  0  0  0
    3.4202    7.9009   20.3866 C   0  0  0  0  0  0  0  0  0  0  0  0
   13.5280   10.3522   19.3586 C   0  0  0  0  0  0  0  0  0  0  0  0
    9.6923    5.6468   22.7891 C   0  0  0  0  0  0  0  0  0  0  0  0
   11.7756   10.2554   20.8841 N   0  0  0  0  0  0  0  0  0  0  0  0
    8.9876   11.9370   19.8757 O   0  0  0  0  0  0  0  0  0  0  0  0
    6.0167    8.4478   21.1089 C   0  0  0  0  0  0  0  0  0  0  0  0
   11.0002   10.8890   20.0262 C   0  0  0  0  0  0  0  0  0  0  0  0
    2.1721    7.7393   20.0315 O   0  0  0  0  0  0  0  0  0  0  0  0
    9.1107   10.3880   21.3769 N   0  0  0  0  0  0  0  0  0  0  0  0
    3.9102    9.2008   20.3124 C   0  0  0  0  0  0  0  0  0  0  0  0
   12.7292   10.9960   18.4597 C   0  0  0  0  0  0  0  0  0  0  0  0
    9.3798    6.6793   23.6625 C   0  0  0  0  0  0  0  0  0  0  0  0
   14.7425   10.0739   19.0802 O   0  0  0  0  0  0  0  0  0  0  0  0
    5.1894    9.4673   20.7118 C   0  0  0  0  0  0  0  0  0  0  0  0
    7.3773    8.8224   21.4870 C   0  0  0  0  0  0  0  0  0  0  0  0
    8.4391    6.6439   21.0235 C   0  0  0  0  0  0  0  0  0  0  0  0
    9.6494   11.1353   20.4167 C   0  0  0  0  0  0  0  0  0  0  0  0
    8.1431    7.6829   21.9046 C   0  0  0  0  0  0  0  0  0  0  0  0
    7.7796   10.1314   21.5115 N   0  0  0  0  0  0  0  0  0  0  0  0
    9.2768    5.6183   21.4437 C   0  0  0  0  0  0  0  0  0  0  0  0
    8.6315    7.7322   23.1768 C   0  0  0  0  0  0  0  0  0  0  0  0
   13.0537    9.9821   20.5781 C   0  0  0  0  0  0  0  0  0  0  0  0
   10.3850    4.6575   23.2386 O   0  0  0  0  0  0  0  0  0  0  0  0
    4.2069    6.8450   20.7994 C   0  0  0  0  0  0  0  0  0  0  0  0
    3.0726   10.1043   19.8522 O   0  0  0  0  0  0  0  0  0  0  0  0
    5.5057    7.1196   21.1155 C   0  0  0  0  0  0  0  0  0  0  0  0
    7.0367   11.0229   21.9948 O   0  0  0  0  0  0  0  0  0  0  0  0
  1  8  4  0
  1 12  4  0
  2  9  1  0
  2 11  4  0
  2 25  4  0
  3 12  4  0
  3 14  1  0
  3 23  4  0
  4 13  4  0
  4 21  4  0
  4 24  1  0
  5  8  4  0
  5 23  4  0
  6 18  2  0
  7 15  4  0
  7 16  1  0
  7 27  4  0
  8 18  1  0
 10 18  1  0
 10 20  1  0
 11 15  4  0
 11 26  1  0
 13 22  4  0
 16 19  1  0
 16 20  2  0
 17 19  4  0
 17 21  4  0
 19 22  4  0
 20 28  1  0
 25 27  4  0
M  END
$$$$

 Created by Python create_sdf_string function

 28 30  0  0  0  0  0  0  0  0999 V2000
   11.4592   11.2893   18.7941 C   0  0  0  0  0  0  0  0  0  0  0  0
    3.4202    7.9009   20.3866 C   0  0  0  0  0  0  0  0  0  0  0  0
   13.5280   10.3522   19.3586 C   0  0  0  0  0  0  0  0  0  0  0  0
    9.6923    5.6468   22.7891 C   0  0  0  0  0  0  0  0  0  0  0  0
   11.7756   10.2554   20.8841 N   0  0  0  0  0  0  0  0  0  0  0  0
    8.9876   11.9370   19.8757 O   0  0  0  0  0  0  0  0  0  0  0  0
    6.0167    8.4478   21.1089 C   0  0  0  0  0  0  0  0  0  0  0  0
   11.0002   10.8890   20.0262 C   0  0  0  0  0  0  0  0  0  0  0  0
    2.1721    7.7393   20.0315 O   0  0  0  0  0  0  0  0  0  0  0  0
    9.1107   10.3880   21.3769 N   0  0  0  0  0  0  0  0  0  0  0  0
    3.9102    9.2008   20.3124 C   0  0  0  0  0  0  0  0  0  0  0  0
   12.7292   10.9960   18.4597 C   0  0  0  0  0  0  0  0  0  0  0  0
    9.3798    6.6793   23.6625 C   0  0  0  0  0  0  0  0  0  0  0  0
   14.7425   10.0739   19.0802 O   0  0  0  0  0  0  0  0  0  0  0  0
    5.1894    9.4673   20.7118 C   0  0  0  0  0  0  0  0  0  0  0  0
    7.3773    8.8224   21.4870 C   0  0  0  0  0  0  0  0  0  0  0  0
    8.4391    6.6439   21.0235 C   0  0  0  0  0  0  0  0  0  0  0  0
    9.6494   11.1353   20.4167 C   0  0  0  0  0  0  0  0  0  0  0  0
    8.1431    7.6829   21.9046 C   0  0  0  0  0  0  0  0  0  0  0  0
    7.7796   10.1314   21.5115 N   0  0  0  0  0  0  0  0  0  0  0  0
    9.2768    5.6183   21.4437 C   0  0  0  0  0  0  0  0  0  0  0  0
    8.6315    7.7322   23.1768 C   0  0  0  0  0  0  0  0  0  0  0  0
   13.0537    9.9821   20.5781 C   0  0  0  0  0  0  0  0  0  0  0  0
   10.3850    4.6575   23.2386 O   0  0  0  0  0  0  0  0  0  0  0  0
    4.2069    6.8450   20.7994 C   0  0  0  0  0  0  0  0  0  0  0  0
    3.0726   10.1043   19.8522 O   0  0  0  0  0  0  0  0  0  0  0  0
    5.5057    7.1196   21.1155 C   0  0  0  0  0  0  0  0  0  0  0  0
    7.0367   11.0229   21.9948 O   0  0  0  0  0  0  0  0  0  0  0  0
  1  8  4  0
  1 12  4  0
  2  9  1  0
  2 11  4  0
  2 25  4  0
  3 12  4  0
  3 14  1  0
  3 23  4  0
  4 13  4  0
  4 21  4  0
  4 24  1  0
  5  8  4  0
  5 23  4  0
  6 18  2  0
  7 15  4  0
  7 16  1  0
  7 27  4  0
  8 18  1  0
 10 18  1  0
 10 20  1  0
 11 15  4  0
 11 26  1  0
 13 22  4  0
 16 19  1  0
 16 20  2  0
 17 19  4  0
 17 21  4  0
 19 22  4  0
 20 28  1  0
 25 27  4  0
M  END
$$$$

 Created by Python create_sdf_string function

 28 30  0  0  0  0  0  0  0  0999 V2000
   11.4592   11.2893   18.7941 C   0  0  0  0  0  0  0  0  0  0  0  0
    3.4202    7.9009   20.3866 C   0  0  0  0  0  0  0  0  0  0  0  0
   13.5280   10.3522   19.3586 C   0  0  0  0  0  0  0  0  0  0  0  0
    9.6923    5.6468   22.7891 C   0  0  0  0  0  0  0  0  0  0  0  0
   11.7756   10.2554   20.8841 N   0  0  0  0  0  0  0  0  0  0  0  0
    8.9876   11.9370   19.8757 O   0  0  0  0  0  0  0  0  0  0  0  0
    6.0167    8.4478   21.1089 C   0  0  0  0  0  0  0  0  0  0  0  0
   11.0002   10.8890   20.0262 C   0  0  0  0  0  0  0  0  0  0  0  0
    2.1721    7.7393   20.0315 O   0  0  0  0  0  0  0  0  0  0  0  0
    9.1107   10.3880   21.3769 N   0  0  0  0  0  0  0  0  0  0  0  0
    3.9102    9.2008   20.3124 C   0  0  0  0  0  0  0  0  0  0  0  0
   12.7292   10.9960   18.4597 C   0  0  0  0  0  0  0  0  0  0  0  0
    9.3798    6.6793   23.6625 C   0  0  0  0  0  0  0  0  0  0  0  0
   14.7425   10.0739   19.0802 O   0  0  0  0  0  0  0  0  0  0  0  0
    5.1894    9.4673   20.7118 C   0  0  0  0  0  0  0  0  0  0  0  0
    7.3773    8.8224   21.4870 C   0  0  0  0  0  0  0  0  0  0  0  0
    8.4391    6.6439   21.0235 C   0  0  0  0  0  0  0  0  0  0  0  0
    9.6494   11.1353   20.4167 C   0  0  0  0  0  0  0  0  0  0  0  0
    8.1431    7.6829   21.9046 C   0  0  0  0  0  0  0  0  0  0  0  0
    7.7796   10.1314   21.5115 N   0  0  0  0  0  0  0  0  0  0  0  0
    9.2768    5.6183   21.4437 C   0  0  0  0  0  0  0  0  0  0  0  0
    8.6315    7.7322   23.1768 C   0  0  0  0  0  0  0  0  0  0  0  0
   13.0537    9.9821   20.5781 C   0  0  0  0  0  0  0  0  0  0  0  0
   10.3850    4.6575   23.2386 O   0  0  0  0  0  0  0  0  0  0  0  0
    4.2069    6.8450   20.7994 C   0  0  0  0  0  0  0  0  0  0  0  0
    3.0726   10.1043   19.8522 O   0  0  0  0  0  0  0  0  0  0  0  0
    5.5057    7.1196   21.1155 C   0  0  0  0  0  0  0  0  0  0  0  0
    7.0367   11.0229   21.9948 O   0  0  0  0  0  0  0  0  0  0  0  0
  1  8  4  0
  1 12  4  0
  2  9  1  0
  2 11  4  0
  2 25  4  0
  3 12  4  0
  3 14  1  0
  3 23  4  0
  4 13  4  0
  4 21  4  0
  4 24  1  0
  5  8  4  0
  5 23  4  0
  6 18  2  0
  7 15  4  0
  7 16  1  0
  7 27  4  0
  8 18  1  0
 10 18  1  0
 10 20  1  0
 11 15  4  0
 11 26  1  0
 13 22  4  0
 16 19  1  0
 16 20  2  0
 17 19  4  0
 17 21  4  0
 19 22  4  0
 20 28  1  0
 25 27  4  0
M  END
$$$$

 Created by Python create_sdf_string function

 28 30  0  0  0  0  0  0  0  0999 V2000
   11.4592   11.2893   18.7941 C   0  0  0  0  0  0  0  0  0  0  0  0
    3.4202    7.9009   20.3866 C   0  0  0  0  0  0  0  0  0  0  0  0
   13.5280   10.3522   19.3586 C   0  0  0  0  0  0  0  0  0  0  0  0
    9.6923    5.6468   22.7891 C   0  0  0  0  0  0  0  0  0  0  0  0
   11.7756   10.2554   20.8841 N   0  0  0  0  0  0  0  0  0  0  0  0
    8.9876   11.9370   19.8757 O   0  0  0  0  0  0  0  0  0  0  0  0
    6.0167    8.4478   21.1089 C   0  0  0  0  0  0  0  0  0  0  0  0
   11.0002   10.8890   20.0262 C   0  0  0  0  0  0  0  0  0  0  0  0
    2.1721    7.7393   20.0315 O   0  0  0  0  0  0  0  0  0  0  0  0
    9.1107   10.3880   21.3769 N   0  0  0  0  0  0  0  0  0  0  0  0
    3.9102    9.2008   20.3124 C   0  0  0  0  0  0  0  0  0  0  0  0
   12.7292   10.9960   18.4597 C   0  0  0  0  0  0  0  0  0  0  0  0
    9.3798    6.6793   23.6625 C   0  0  0  0  0  0  0  0  0  0  0  0
   14.7425   10.0739   19.0802 O   0  0  0  0  0  0  0  0  0  0  0  0
    5.1894    9.4673   20.7118 C   0  0  0  0  0  0  0  0  0  0  0  0
    7.3773    8.8224   21.4870 C   0  0  0  0  0  0  0  0  0  0  0  0
    8.4391    6.6439   21.0235 C   0  0  0  0  0  0  0  0  0  0  0  0
    9.6494   11.1353   20.4167 C   0  0  0  0  0  0  0  0  0  0  0  0
    8.1431    7.6829   21.9046 C   0  0  0  0  0  0  0  0  0  0  0  0
    7.7796   10.1314   21.5115 N   0  0  0  0  0  0  0  0  0  0  0  0
    9.2768    5.6183   21.4437 C   0  0  0  0  0  0  0  0  0  0  0  0
    8.6315    7.7322   23.1768 C   0  0  0  0  0  0  0  0  0  0  0  0
   13.0537    9.9821   20.5781 C   0  0  0  0  0  0  0  0  0  0  0  0
   10.3850    4.6575   23.2386 O   0  0  0  0  0  0  0  0  0  0  0  0
    4.2069    6.8450   20.7994 C   0  0  0  0  0  0  0  0  0  0  0  0
    3.0726   10.1043   19.8522 O   0  0  0  0  0  0  0  0  0  0  0  0
    5.5057    7.1196   21.1155 C   0  0  0  0  0  0  0  0  0  0  0  0
    7.0367   11.0229   21.9948 O   0  0  0  0  0  0  0  0  0  0  0  0
  1  8  4  0
  1 12  4  0
  2  9  1  0
  2 11  4  0
  2 25  4  0
  3 12  4  0
  3 14  1  0
  3 23  4  0
  4 13  4  0
  4 21  4  0
  4 24  1  0
  5  8  4  0
  5 23  4  0
  6 18  2  0
  7 15  4  0
  7 16  1  0
  7 27  4  0
  8 18  1  0
 10 18  1  0
 10 20  1  0
 11 15  4  0
 11 26  1  0
 13 22  4  0
 16 19  1  0
 16 20  2  0
 17 19  4  0
 17 21  4  0
 19 22  4  0
 20 28  1  0
 25 27  4  0
M  END
$$$$

 Created by Python create_sdf_string function

 28 30  0  0  0  0  0  0  0  0999 V2000
   11.4592   11.2893   18.7941 C   0  0  0  0  0  0  0  0  0  0  0  0
    3.4202    7.9009   20.3866 C   0  0  0  0  0  0  0  0  0  0  0  0
   13.5280   10.3522   19.3586 C   0  0  0  0  0  0  0  0  0  0  0  0
    9.6923    5.6468   22.7891 C   0  0  0  0  0  0  0  0  0  0  0  0
   11.7756   10.2554   20.8841 N   0  0  0  0  0  0  0  0  0  0  0  0
    8.9876   11.9370   19.8757 O   0  0  0  0  0  0  0  0  0  0  0  0
    6.0167    8.4478   21.1089 C   0  0  0  0  0  0  0  0  0  0  0  0
   11.0002   10.8890   20.0262 C   0  0  0  0  0  0  0  0  0  0  0  0
    2.1721    7.7393   20.0315 O   0  0  0  0  0  0  0  0  0  0  0  0
    9.1107   10.3880   21.3769 N   0  0  0  0  0  0  0  0  0  0  0  0
    3.9102    9.2008   20.3124 C   0  0  0  0  0  0  0  0  0  0  0  0
   12.7292   10.9960   18.4597 C   0  0  0  0  0  0  0  0  0  0  0  0
    9.3798    6.6793   23.6625 C   0  0  0  0  0  0  0  0  0  0  0  0
   14.7425   10.0739   19.0802 O   0  0  0  0  0  0  0  0  0  0  0  0
    5.1894    9.4673   20.7118 C   0  0  0  0  0  0  0  0  0  0  0  0
    7.3773    8.8224   21.4870 C   0  0  0  0  0  0  0  0  0  0  0  0
    8.4391    6.6439   21.0235 C   0  0  0  0  0  0  0  0  0  0  0  0
    9.6494   11.1353   20.4167 C   0  0  0  0  0  0  0  0  0  0  0  0
    8.1431    7.6829   21.9046 C   0  0  0  0  0  0  0  0  0  0  0  0
    7.7796   10.1314   21.5115 N   0  0  0  0  0  0  0  0  0  0  0  0
    9.2768    5.6183   21.4437 C   0  0  0  0  0  0  0  0  0  0  0  0
    8.6315    7.7322   23.1768 C   0  0  0  0  0  0  0  0  0  0  0  0
   13.0537    9.9821   20.5781 C   0  0  0  0  0  0  0  0  0  0  0  0
   10.3850    4.6575   23.2386 O   0  0  0  0  0  0  0  0  0  0  0  0
    4.2069    6.8450   20.7994 C   0  0  0  0  0  0  0  0  0  0  0  0
    3.0726   10.1043   19.8522 O   0  0  0  0  0  0  0  0  0  0  0  0
    5.5057    7.1196   21.1155 C   0  0  0  0  0  0  0  0  0  0  0  0
    7.0367   11.0229   21.9948 O   0  0  0  0  0  0  0  0  0  0  0  0
  1  8  4  0
  1 12  4  0
  2  9  1  0
  2 11  4  0
  2 25  4  0
  3 12  4  0
  3 14  1  0
  3 23  4  0
  4 13  4  0
  4 21  4  0
  4 24  1  0
  5  8  4  0
  5 23  4  0
  6 18  2  0
  7 15  4  0
  7 16  1  0
  7 27  4  0
  8 18  1  0
 10 18  1  0
 10 20  1  0
 11 15  4  0
 11 26  1  0
 13 22  4  0
 16 19  1  0
 16 20  2  0
 17 19  4  0
 17 21  4  0
 19 22  4  0
 20 28  1  0
 25 27  4  0
M  END
$$$$

 Created by Python create_sdf_string function

 28 30  0  0  0  0  0  0  0  0999 V2000
   11.4592   11.2893   18.7941 C   0  0  0  0  0  0  0  0  0  0  0  0
    3.4202    7.9009   20.3866 C   0  0  0  0  0  0  0  0  0  0  0  0
   13.5280   10.3522   19.3586 C   0  0  0  0  0  0  0  0  0  0  0  0
    9.6923    5.6468   22.7891 C   0  0  0  0  0  0  0  0  0  0  0  0
   11.7756   10.2554   20.8841 N   0  0  0  0  0  0  0  0  0  0  0  0
    8.9876   11.9370   19.8757 O   0  0  0  0  0  0  0  0  0  0  0  0
    6.0167    8.4478   21.1089 C   0  0  0  0  0  0  0  0  0  0  0  0
   11.0002   10.8890   20.0262 C   0  0  0  0  0  0  0  0  0  0  0  0
    2.1721    7.7393   20.0315 O   0  0  0  0  0  0  0  0  0  0  0  0
    9.1107   10.3880   21.3769 N   0  0  0  0  0  0  0  0  0  0  0  0
    3.9102    9.2008   20.3124 C   0  0  0  0  0  0  0  0  0  0  0  0
   12.7292   10.9960   18.4597 C   0  0  0  0  0  0  0  0  0  0  0  0
    9.3798    6.6793   23.6625 C   0  0  0  0  0  0  0  0  0  0  0  0
   14.7425   10.0739   19.0802 O   0  0  0  0  0  0  0  0  0  0  0  0
    5.1894    9.4673   20.7118 C   0  0  0  0  0  0  0  0  0  0  0  0
    7.3773    8.8224   21.4870 C   0  0  0  0  0  0  0  0  0  0  0  0
    8.4391    6.6439   21.0235 C   0  0  0  0  0  0  0  0  0  0  0  0
    9.6494   11.1353   20.4167 C   0  0  0  0  0  0  0  0  0  0  0  0
    8.1431    7.6829   21.9046 C   0  0  0  0  0  0  0  0  0  0  0  0
    7.7796   10.1314   21.5115 N   0  0  0  0  0  0  0  0  0  0  0  0
    9.2768    5.6183   21.4437 C   0  0  0  0  0  0  0  0  0  0  0  0
    8.6315    7.7322   23.1768 C   0  0  0  0  0  0  0  0  0  0  0  0
   13.0537    9.9821   20.5781 C   0  0  0  0  0  0  0  0  0  0  0  0
   10.3850    4.6575   23.2386 O   0  0  0  0  0  0  0  0  0  0  0  0
    4.2069    6.8450   20.7994 C   0  0  0  0  0  0  0  0  0  0  0  0
    3.0726   10.1043   19.8522 O   0  0  0  0  0  0  0  0  0  0  0  0
    5.5057    7.1196   21.1155 C   0  0  0  0  0  0  0  0  0  0  0  0
    7.0367   11.0229   21.9948 O   0  0  0  0  0  0  0  0  0  0  0  0
  1  8  4  0
  1 12  4  0
  2  9  1  0
  2 11  4  0
  2 25  4  0
  3 12  4  0
  3 14  1  0
  3 23  4  0
  4 13  4  0
  4 21  4  0
  4 24  1  0
  5  8  4  0
  5 23  4  0
  6 18  2  0
  7 15  4  0
  7 16  1  0
  7 27  4  0
  8 18  1  0
 10 18  1  0
 10 20  1  0
 11 15  4  0
 11 26  1  0
 13 22  4  0
 16 19  1  0
 16 20  2  0
 17 19  4  0
 17 21  4  0
 19 22  4  0
 20 28  1  0
 25 27  4  0
M  END
$$$$

 Created by Python create_sdf_string function

 28 30  0  0  0  0  0  0  0  0999 V2000
   11.4592   11.2893   18.7941 C   0  0  0  0  0  0  0  0  0  0  0  0
    3.4202    7.9009   20.3866 C   0  0  0  0  0  0  0  0  0  0  0  0
   13.5280   10.3522   19.3586 C   0  0  0  0  0  0  0  0  0  0  0  0
    9.6923    5.6468   22.7891 C   0  0  0  0  0  0  0  0  0  0  0  0
   11.7756   10.2554   20.8841 N   0  0  0  0  0  0  0  0  0  0  0  0
    8.9876   11.9370   19.8757 O   0  0  0  0  0  0  0  0  0  0  0  0
    6.0167    8.4478   21.1089 C   0  0  0  0  0  0  0  0  0  0  0  0
   11.0002   10.8890   20.0262 C   0  0  0  0  0  0  0  0  0  0  0  0
    2.1721    7.7393   20.0315 O   0  0  0  0  0  0  0  0  0  0  0  0
    9.1107   10.3880   21.3769 N   0  0  0  0  0  0  0  0  0  0  0  0
    3.9102    9.2008   20.3124 C   0  0  0  0  0  0  0  0  0  0  0  0
   12.7292   10.9960   18.4597 C   0  0  0  0  0  0  0  0  0  0  0  0
    9.3798    6.6793   23.6625 C   0  0  0  0  0  0  0  0  0  0  0  0
   14.7425   10.0739   19.0802 O   0  0  0  0  0  0  0  0  0  0  0  0
    5.1894    9.4673   20.7118 C   0  0  0  0  0  0  0  0  0  0  0  0
    7.3773    8.8224   21.4870 C   0  0  0  0  0  0  0  0  0  0  0  0
    8.4391    6.6439   21.0235 C   0  0  0  0  0  0  0  0  0  0  0  0
    9.6494   11.1353   20.4167 C   0  0  0  0  0  0  0  0  0  0  0  0
    8.1431    7.6829   21.9046 C   0  0  0  0  0  0  0  0  0  0  0  0
    7.7796   10.1314   21.5115 N   0  0  0  0  0  0  0  0  0  0  0  0
    9.2768    5.6183   21.4437 C   0  0  0  0  0  0  0  0  0  0  0  0
    8.6315    7.7322   23.1768 C   0  0  0  0  0  0  0  0  0  0  0  0
   13.0537    9.9821   20.5781 C   0  0  0  0  0  0  0  0  0  0  0  0
   10.3850    4.6575   23.2386 O   0  0  0  0  0  0  0  0  0  0  0  0
    4.2069    6.8450   20.7994 C   0  0  0  0  0  0  0  0  0  0  0  0
    3.0726   10.1043   19.8522 O   0  0  0  0  0  0  0  0  0  0  0  0
    5.5057    7.1196   21.1155 C   0  0  0  0  0  0  0  0  0  0  0  0
    7.0367   11.0229   21.9948 O   0  0  0  0  0  0  0  0  0  0  0  0
  1  8  4  0
  1 12  4  0
  2  9  1  0
  2 11  4  0
  2 25  4  0
  3 12  4  0
  3 14  1  0
  3 23  4  0
  4 13  4  0
  4 21  4  0
  4 24  1  0
  5  8  4  0
  5 23  4  0
  6 18  2  0
  7 15  4  0
  7 16  1  0
  7 27  4  0
  8 18  1  0
 10 18  1  0
 10 20  1  0
 11 15  4  0
 11 26  1  0
 13 22  4  0
 16 19  1  0
 16 20  2  0
 17 19  4  0
 17 21  4  0
 19 22  4  0
 20 28  1  0
 25 27  4  0
M  END
$$$$

 Created by Python create_sdf_string function

 28 30  0  0  0  0  0  0  0  0999 V2000
   11.4592   11.2893   18.7941 C   0  0  0  0  0  0  0  0  0  0  0  0
    3.4202    7.9009   20.3866 C   0  0  0  0  0  0  0  0  0  0  0  0
   13.5280   10.3522   19.3586 C   0  0  0  0  0  0  0  0  0  0  0  0
    9.6923    5.6468   22.7891 C   0  0  0  0  0  0  0  0  0  0  0  0
   11.7756   10.2554   20.8841 N   0  0  0  0  0  0  0  0  0  0  0  0
    8.9876   11.9370   19.8757 O   0  0  0  0  0  0  0  0  0  0  0  0
    6.0167    8.4478   21.1089 C   0  0  0  0  0  0  0  0  0  0  0  0
   11.0002   10.8890   20.0262 C   0  0  0  0  0  0  0  0  0  0  0  0
    2.1721    7.7393   20.0315 O   0  0  0  0  0  0  0  0  0  0  0  0
    9.1107   10.3880   21.3769 N   0  0  0  0  0  0  0  0  0  0  0  0
    3.9102    9.2008   20.3124 C   0  0  0  0  0  0  0  0  0  0  0  0
   12.7292   10.9960   18.4597 C   0  0  0  0  0  0  0  0  0  0  0  0
    9.3798    6.6793   23.6625 C   0  0  0  0  0  0  0  0  0  0  0  0
   14.7425   10.0739   19.0802 O   0  0  0  0  0  0  0  0  0  0  0  0
    5.1894    9.4673   20.7118 C   0  0  0  0  0  0  0  0  0  0  0  0
    7.3773    8.8224   21.4870 C   0  0  0  0  0  0  0  0  0  0  0  0
    8.4391    6.6439   21.0235 C   0  0  0  0  0  0  0  0  0  0  0  0
    9.6494   11.1353   20.4167 C   0  0  0  0  0  0  0  0  0  0  0  0
    8.1431    7.6829   21.9046 C   0  0  0  0  0  0  0  0  0  0  0  0
    7.7796   10.1314   21.5115 N   0  0  0  0  0  0  0  0  0  0  0  0
    9.2768    5.6183   21.4437 C   0  0  0  0  0  0  0  0  0  0  0  0
    8.6315    7.7322   23.1768 C   0  0  0  0  0  0  0  0  0  0  0  0
   13.0537    9.9821   20.5781 C   0  0  0  0  0  0  0  0  0  0  0  0
   10.3850    4.6575   23.2386 O   0  0  0  0  0  0  0  0  0  0  0  0
    4.2069    6.8450   20.7994 C   0  0  0  0  0  0  0  0  0  0  0  0
    3.0726   10.1043   19.8522 O   0  0  0  0  0  0  0  0  0  0  0  0
    5.5057    7.1196   21.1155 C   0  0  0  0  0  0  0  0  0  0  0  0
    7.0367   11.0229   21.9948 O   0  0  0  0  0  0  0  0  0  0  0  0
  1  8  4  0
  1 12  4  0
  2  9  1  0
  2 11  4  0
  2 25  4  0
  3 12  4  0
  3 14  1  0
  3 23  4  0
  4 13  4  0
  4 21  4  0
  4 24  1  0
  5  8  4  0
  5 23  4  0
  6 18  2  0
  7 15  4  0
  7 16  1  0
  7 27  4  0
  8 18  1  0
 10 18  1  0
 10 20  1  0
 11 15  4  0
 11 26  1  0
 13 22  4  0
 16 19  1  0
 16 20  2  0
 17 19  4  0
 17 21  4  0
 19 22  4  0
 20 28  1  0
 25 27  4  0
M  END
$$$$

 Created by Python create_sdf_string function

 28 30  0  0  0  0  0  0  0  0999 V2000
   11.4592   11.2893   18.7941 C   0  0  0  0  0  0  0  0  0  0  0  0
    3.4202    7.9009   20.3866 C   0  0  0  0  0  0  0  0  0  0  0  0
   13.5280   10.3522   19.3586 C   0  0  0  0  0  0  0  0  0  0  0  0
    9.6923    5.6468   22.7891 C   0  0  0  0  0  0  0  0  0  0  0  0
   11.7756   10.2554   20.8841 N   0  0  0  0  0  0  0  0  0  0  0  0
    8.9876   11.9370   19.8757 O   0  0  0  0  0  0  0  0  0  0  0  0
    6.0167    8.4478   21.1089 C   0  0  0  0  0  0  0  0  0  0  0  0
   11.0002   10.8890   20.0262 C   0  0  0  0  0  0  0  0  0  0  0  0
    2.1721    7.7393   20.0315 O   0  0  0  0  0  0  0  0  0  0  0  0
    9.1107   10.3880   21.3769 N   0  0  0  0  0  0  0  0  0  0  0  0
    3.9102    9.2008   20.3124 C   0  0  0  0  0  0  0  0  0  0  0  0
   12.7292   10.9960   18.4597 C   0  0  0  0  0  0  0  0  0  0  0  0
    9.3798    6.6793   23.6625 C   0  0  0  0  0  0  0  0  0  0  0  0
   14.7425   10.0739   19.0802 O   0  0  0  0  0  0  0  0  0  0  0  0
    5.1894    9.4673   20.7118 C   0  0  0  0  0  0  0  0  0  0  0  0
    7.3773    8.8224   21.4870 C   0  0  0  0  0  0  0  0  0  0  0  0
    8.4391    6.6439   21.0235 C   0  0  0  0  0  0  0  0  0  0  0  0
    9.6494   11.1353   20.4167 C   0  0  0  0  0  0  0  0  0  0  0  0
    8.1431    7.6829   21.9046 C   0  0  0  0  0  0  0  0  0  0  0  0
    7.7796   10.1314   21.5115 N   0  0  0  0  0  0  0  0  0  0  0  0
    9.2768    5.6183   21.4437 C   0  0  0  0  0  0  0  0  0  0  0  0
    8.6315    7.7322   23.1768 C   0  0  0  0  0  0  0  0  0  0  0  0
   13.0537    9.9821   20.5781 C   0  0  0  0  0  0  0  0  0  0  0  0
   10.3850    4.6575   23.2386 O   0  0  0  0  0  0  0  0  0  0  0  0
    4.2069    6.8450   20.7994 C   0  0  0  0  0  0  0  0  0  0  0  0
    3.0726   10.1043   19.8522 O   0  0  0  0  0  0  0  0  0  0  0  0
    5.5057    7.1196   21.1155 C   0  0  0  0  0  0  0  0  0  0  0  0
    7.0367   11.0229   21.9948 O   0  0  0  0  0  0  0  0  0  0  0  0
  1  8  4  0
  1 12  4  0
  2  9  1  0
  2 11  4  0
  2 25  4  0
  3 12  4  0
  3 14  1  0
  3 23  4  0
  4 13  4  0
  4 21  4  0
  4 24  1  0
  5  8  4  0
  5 23  4  0
  6 18  2  0
  7 15  4  0
  7 16  1  0
  7 27  4  0
  8 18  1  0
 10 18  1  0
 10 20  1  0
 11 15  4  0
 11 26  1  0
 13 22  4  0
 16 19  1  0
 16 20  2  0
 17 19  4  0
 17 21  4  0
 19 22  4  0
 20 28  1  0
 25 27  4  0
M  END
$$$$

 Created by Python create_sdf_string function

 28 30  0  0  0  0  0  0  0  0999 V2000
   11.4592   11.2893   18.7941 C   0  0  0  0  0  0  0  0  0  0  0  0
    3.4202    7.9009   20.3866 C   0  0  0  0  0  0  0  0  0  0  0  0
   13.5280   10.3522   19.3586 C   0  0  0  0  0  0  0  0  0  0  0  0
    9.6923    5.6468   22.7891 C   0  0  0  0  0  0  0  0  0  0  0  0
   11.7756   10.2554   20.8841 N   0  0  0  0  0  0  0  0  0  0  0  0
    8.9876   11.9370   19.8757 O   0  0  0  0  0  0  0  0  0  0  0  0
    6.0167    8.4478   21.1089 C   0  0  0  0  0  0  0  0  0  0  0  0
   11.0002   10.8890   20.0262 C   0  0  0  0  0  0  0  0  0  0  0  0
    2.1721    7.7393   20.0315 O   0  0  0  0  0  0  0  0  0  0  0  0
    9.1107   10.3880   21.3769 N   0  0  0  0  0  0  0  0  0  0  0  0
    3.9102    9.2008   20.3124 C   0  0  0  0  0  0  0  0  0  0  0  0
   12.7292   10.9960   18.4597 C   0  0  0  0  0  0  0  0  0  0  0  0
    9.3798    6.6793   23.6625 C   0  0  0  0  0  0  0  0  0  0  0  0
   14.7425   10.0739   19.0802 O   0  0  0  0  0  0  0  0  0  0  0  0
    5.1894    9.4673   20.7118 C   0  0  0  0  0  0  0  0  0  0  0  0
    7.3773    8.8224   21.4870 C   0  0  0  0  0  0  0  0  0  0  0  0
    8.4391    6.6439   21.0235 C   0  0  0  0  0  0  0  0  0  0  0  0
    9.6494   11.1353   20.4167 C   0  0  0  0  0  0  0  0  0  0  0  0
    8.1431    7.6829   21.9046 C   0  0  0  0  0  0  0  0  0  0  0  0
    7.7796   10.1314   21.5115 N   0  0  0  0  0  0  0  0  0  0  0  0
    9.2768    5.6183   21.4437 C   0  0  0  0  0  0  0  0  0  0  0  0
    8.6315    7.7322   23.1768 C   0  0  0  0  0  0  0  0  0  0  0  0
   13.0537    9.9821   20.5781 C   0  0  0  0  0  0  0  0  0  0  0  0
   10.3850    4.6575   23.2386 O   0  0  0  0  0  0  0  0  0  0  0  0
    4.2069    6.8450   20.7994 C   0  0  0  0  0  0  0  0  0  0  0  0
    3.0726   10.1043   19.8522 O   0  0  0  0  0  0  0  0  0  0  0  0
    5.5057    7.1196   21.1155 C   0  0  0  0  0  0  0  0  0  0  0  0
    7.0367   11.0229   21.9948 O   0  0  0  0  0  0  0  0  0  0  0  0
  1  8  4  0
  1 12  4  0
  2  9  1  0
  2 11  4  0
  2 25  4  0
  3 12  4  0
  3 14  1  0
  3 23  4  0
  4 13  4  0
  4 21  4  0
  4 24  1  0
  5  8  4  0
  5 23  4  0
  6 18  2  0
  7 15  4  0
  7 16  1  0
  7 27  4  0
  8 18  1  0
 10 18  1  0
 10 20  1  0
 11 15  4  0
 11 26  1  0
 13 22  4  0
 16 19  1  0
 16 20  2  0
 17 19  4  0
 17 21  4  0
 19 22  4  0
 20 28  1  0
 25 27  4  0
M  END
$$$$

 Created by Python create_sdf_string function

 28 30  0  0  0  0  0  0  0  0999 V2000
   11.4592   11.2893   18.7941 C   0  0  0  0  0  0  0  0  0  0  0  0
    3.4202    7.9009   20.3866 C   0  0  0  0  0  0  0  0  0  0  0  0
   13.5280   10.3522   19.3586 C   0  0  0  0  0  0  0  0  0  0  0  0
    9.6923    5.6468   22.7891 C   0  0  0  0  0  0  0  0  0  0  0  0
   11.7756   10.2554   20.8841 N   0  0  0  0  0  0  0  0  0  0  0  0
    8.9876   11.9370   19.8757 O   0  0  0  0  0  0  0  0  0  0  0  0
    6.0167    8.4478   21.1089 C   0  0  0  0  0  0  0  0  0  0  0  0
   11.0002   10.8890   20.0262 C   0  0  0  0  0  0  0  0  0  0  0  0
    2.1721    7.7393   20.0315 O   0  0  0  0  0  0  0  0  0  0  0  0
    9.1107   10.3880   21.3769 N   0  0  0  0  0  0  0  0  0  0  0  0
    3.9102    9.2008   20.3124 C   0  0  0  0  0  0  0  0  0  0  0  0
   12.7292   10.9960   18.4597 C   0  0  0  0  0  0  0  0  0  0  0  0
    9.3798    6.6793   23.6625 C   0  0  0  0  0  0  0  0  0  0  0  0
   14.7425   10.0739   19.0802 O   0  0  0  0  0  0  0  0  0  0  0  0
    5.1894    9.4673   20.7118 C   0  0  0  0  0  0  0  0  0  0  0  0
    7.3773    8.8224   21.4870 C   0  0  0  0  0  0  0  0  0  0  0  0
    8.4391    6.6439   21.0235 C   0  0  0  0  0  0  0  0  0  0  0  0
    9.6494   11.1353   20.4167 C   0  0  0  0  0  0  0  0  0  0  0  0
    8.1431    7.6829   21.9046 C   0  0  0  0  0  0  0  0  0  0  0  0
    7.7796   10.1314   21.5115 N   0  0  0  0  0  0  0  0  0  0  0  0
    9.2768    5.6183   21.4437 C   0  0  0  0  0  0  0  0  0  0  0  0
    8.6315    7.7322   23.1768 C   0  0  0  0  0  0  0  0  0  0  0  0
   13.0537    9.9821   20.5781 C   0  0  0  0  0  0  0  0  0  0  0  0
   10.3850    4.6575   23.2386 O   0  0  0  0  0  0  0  0  0  0  0  0
    4.2069    6.8450   20.7994 C   0  0  0  0  0  0  0  0  0  0  0  0
    3.0726   10.1043   19.8522 O   0  0  0  0  0  0  0  0  0  0  0  0
    5.5057    7.1196   21.1155 C   0  0  0  0  0  0  0  0  0  0  0  0
    7.0367   11.0229   21.9948 O   0  0  0  0  0  0  0  0  0  0  0  0
  1  8  4  0
  1 12  4  0
  2  9  1  0
  2 11  4  0
  2 25  4  0
  3 12  4  0
  3 14  1  0
  3 23  4  0
  4 13  4  0
  4 21  4  0
  4 24  1  0
  5  8  4  0
  5 23  4  0
  6 18  2  0
  7 15  4  0
  7 16  1  0
  7 27  4  0
  8 18  1  0
 10 18  1  0
 10 20  1  0
 11 15  4  0
 11 26  1  0
 13 22  4  0
 16 19  1  0
 16 20  2  0
 17 19  4  0
 17 21  4  0
 19 22  4  0
 20 28  1  0
 25 27  4  0
M  END
$$$$

 Created by Python create_sdf_string function

 28 30  0  0  0  0  0  0  0  0999 V2000
   11.4592   11.2893   18.7941 C   0  0  0  0  0  0  0  0  0  0  0  0
    3.4202    7.9009   20.3866 C   0  0  0  0  0  0  0  0  0  0  0  0
   13.5280   10.3522   19.3586 C   0  0  0  0  0  0  0  0  0  0  0  0
    9.6923    5.6468   22.7891 C   0  0  0  0  0  0  0  0  0  0  0  0
   11.7756   10.2554   20.8841 N   0  0  0  0  0  0  0  0  0  0  0  0
    8.9876   11.9370   19.8757 O   0  0  0  0  0  0  0  0  0  0  0  0
    6.0167    8.4478   21.1089 C   0  0  0  0  0  0  0  0  0  0  0  0
   11.0002   10.8890   20.0262 C   0  0  0  0  0  0  0  0  0  0  0  0
    2.1721    7.7393   20.0315 O   0  0  0  0  0  0  0  0  0  0  0  0
    9.1107   10.3880   21.3769 N   0  0  0  0  0  0  0  0  0  0  0  0
    3.9102    9.2008   20.3124 C   0  0  0  0  0  0  0  0  0  0  0  0
   12.7292   10.9960   18.4597 C   0  0  0  0  0  0  0  0  0  0  0  0
    9.3798    6.6793   23.6625 C   0  0  0  0  0  0  0  0  0  0  0  0
   14.7425   10.0739   19.0802 O   0  0  0  0  0  0  0  0  0  0  0  0
    5.1894    9.4673   20.7118 C   0  0  0  0  0  0  0  0  0  0  0  0
    7.3773    8.8224   21.4870 C   0  0  0  0  0  0  0  0  0  0  0  0
    8.4391    6.6439   21.0235 C   0  0  0  0  0  0  0  0  0  0  0  0
    9.6494   11.1353   20.4167 C   0  0  0  0  0  0  0  0  0  0  0  0
    8.1431    7.6829   21.9046 C   0  0  0  0  0  0  0  0  0  0  0  0
    7.7796   10.1314   21.5115 N   0  0  0  0  0  0  0  0  0  0  0  0
    9.2768    5.6183   21.4437 C   0  0  0  0  0  0  0  0  0  0  0  0
    8.6315    7.7322   23.1768 C   0  0  0  0  0  0  0  0  0  0  0  0
   13.0537    9.9821   20.5781 C   0  0  0  0  0  0  0  0  0  0  0  0
   10.3850    4.6575   23.2386 O   0  0  0  0  0  0  0  0  0  0  0  0
    4.2069    6.8450   20.7994 C   0  0  0  0  0  0  0  0  0  0  0  0
    3.0726   10.1043   19.8522 O   0  0  0  0  0  0  0  0  0  0  0  0
    5.5057    7.1196   21.1155 C   0  0  0  0  0  0  0  0  0  0  0  0
    7.0367   11.0229   21.9948 O   0  0  0  0  0  0  0  0  0  0  0  0
  1  8  4  0
  1 12  4  0
  2  9  1  0
  2 11  4  0
  2 25  4  0
  3 12  4  0
  3 14  1  0
  3 23  4  0
  4 13  4  0
  4 21  4  0
  4 24  1  0
  5  8  4  0
  5 23  4  0
  6 18  2  0
  7 15  4  0
  7 16  1  0
  7 27  4  0
  8 18  1  0
 10 18  1  0
 10 20  1  0
 11 15  4  0
 11 26  1  0
 13 22  4  0
 16 19  1  0
 16 20  2  0
 17 19  4  0
 17 21  4  0
 19 22  4  0
 20 28  1  0
 25 27  4  0
M  END
$$$$

 Created by Python create_sdf_string function

 28 30  0  0  0  0  0  0  0  0999 V2000
   11.4592   11.2893   18.7941 C   0  0  0  0  0  0  0  0  0  0  0  0
    3.4202    7.9009   20.3866 C   0  0  0  0  0  0  0  0  0  0  0  0
   13.5280   10.3522   19.3586 C   0  0  0  0  0  0  0  0  0  0  0  0
    9.6923    5.6468   22.7891 C   0  0  0  0  0  0  0  0  0  0  0  0
   11.7756   10.2554   20.8841 N   0  0  0  0  0  0  0  0  0  0  0  0
    8.9876   11.9370   19.8757 O   0  0  0  0  0  0  0  0  0  0  0  0
    6.0167    8.4478   21.1089 C   0  0  0  0  0  0  0  0  0  0  0  0
   11.0002   10.8890   20.0262 C   0  0  0  0  0  0  0  0  0  0  0  0
    2.1721    7.7393   20.0315 O   0  0  0  0  0  0  0  0  0  0  0  0
    9.1107   10.3880   21.3769 N   0  0  0  0  0  0  0  0  0  0  0  0
    3.9102    9.2008   20.3124 C   0  0  0  0  0  0  0  0  0  0  0  0
   12.7292   10.9960   18.4597 C   0  0  0  0  0  0  0  0  0  0  0  0
    9.3798    6.6793   23.6625 C   0  0  0  0  0  0  0  0  0  0  0  0
   14.7425   10.0739   19.0802 O   0  0  0  0  0  0  0  0  0  0  0  0
    5.1894    9.4673   20.7118 C   0  0  0  0  0  0  0  0  0  0  0  0
    7.3773    8.8224   21.4870 C   0  0  0  0  0  0  0  0  0  0  0  0
    8.4391    6.6439   21.0235 C   0  0  0  0  0  0  0  0  0  0  0  0
    9.6494   11.1353   20.4167 C   0  0  0  0  0  0  0  0  0  0  0  0
    8.1431    7.6829   21.9046 C   0  0  0  0  0  0  0  0  0  0  0  0
    7.7796   10.1314   21.5115 N   0  0  0  0  0  0  0  0  0  0  0  0
    9.2768    5.6183   21.4437 C   0  0  0  0  0  0  0  0  0  0  0  0
    8.6315    7.7322   23.1768 C   0  0  0  0  0  0  0  0  0  0  0  0
   13.0537    9.9821   20.5781 C   0  0  0  0  0  0  0  0  0  0  0  0
   10.3850    4.6575   23.2386 O   0  0  0  0  0  0  0  0  0  0  0  0
    4.2069    6.8450   20.7994 C   0  0  0  0  0  0  0  0  0  0  0  0
    3.0726   10.1043   19.8522 O   0  0  0  0  0  0  0  0  0  0  0  0
    5.5057    7.1196   21.1155 C   0  0  0  0  0  0  0  0  0  0  0  0
    7.0367   11.0229   21.9948 O   0  0  0  0  0  0  0  0  0  0  0  0
  1  8  4  0
  1 12  4  0
  2  9  1  0
  2 11  4  0
  2 25  4  0
  3 12  4  0
  3 14  1  0
  3 23  4  0
  4 13  4  0
  4 21  4  0
  4 24  1  0
  5  8  4  0
  5 23  4  0
  6 18  2  0
  7 15  4  0
  7 16  1  0
  7 27  4  0
  8 18  1  0
 10 18  1  0
 10 20  1  0
 11 15  4  0
 11 26  1  0
 13 22  4  0
 16 19  1  0
 16 20  2  0
 17 19  4  0
 17 21  4  0
 19 22  4  0
 20 28  1  0
 25 27  4  0
M  END
$$$$

 Created by Python create_sdf_string function

 28 30  0  0  0  0  0  0  0  0999 V2000
   11.4592   11.2893   18.7941 C   0  0  0  0  0  0  0  0  0  0  0  0
    3.4202    7.9009   20.3866 C   0  0  0  0  0  0  0  0  0  0  0  0
   13.5280   10.3522   19.3586 C   0  0  0  0  0  0  0  0  0  0  0  0
    9.6923    5.6468   22.7891 C   0  0  0  0  0  0  0  0  0  0  0  0
   11.7756   10.2554   20.8841 N   0  0  0  0  0  0  0  0  0  0  0  0
    8.9876   11.9370   19.8757 O   0  0  0  0  0  0  0  0  0  0  0  0
    6.0167    8.4478   21.1089 C   0  0  0  0  0  0  0  0  0  0  0  0
   11.0002   10.8890   20.0262 C   0  0  0  0  0  0  0  0  0  0  0  0
    2.1721    7.7393   20.0315 O   0  0  0  0  0  0  0  0  0  0  0  0
    9.1107   10.3880   21.3769 N   0  0  0  0  0  0  0  0  0  0  0  0
    3.9102    9.2008   20.3124 C   0  0  0  0  0  0  0  0  0  0  0  0
   12.7292   10.9960   18.4597 C   0  0  0  0  0  0  0  0  0  0  0  0
    9.3798    6.6793   23.6625 C   0  0  0  0  0  0  0  0  0  0  0  0
   14.7425   10.0739   19.0802 O   0  0  0  0  0  0  0  0  0  0  0  0
    5.1894    9.4673   20.7118 C   0  0  0  0  0  0  0  0  0  0  0  0
    7.3773    8.8224   21.4870 C   0  0  0  0  0  0  0  0  0  0  0  0
    8.4391    6.6439   21.0235 C   0  0  0  0  0  0  0  0  0  0  0  0
    9.6494   11.1353   20.4167 C   0  0  0  0  0  0  0  0  0  0  0  0
    8.1431    7.6829   21.9046 C   0  0  0  0  0  0  0  0  0  0  0  0
    7.7796   10.1314   21.5115 N   0  0  0  0  0  0  0  0  0  0  0  0
    9.2768    5.6183   21.4437 C   0  0  0  0  0  0  0  0  0  0  0  0
    8.6315    7.7322   23.1768 C   0  0  0  0  0  0  0  0  0  0  0  0
   13.0537    9.9821   20.5781 C   0  0  0  0  0  0  0  0  0  0  0  0
   10.3850    4.6575   23.2386 O   0  0  0  0  0  0  0  0  0  0  0  0
    4.2069    6.8450   20.7994 C   0  0  0  0  0  0  0  0  0  0  0  0
    3.0726   10.1043   19.8522 O   0  0  0  0  0  0  0  0  0  0  0  0
    5.5057    7.1196   21.1155 C   0  0  0  0  0  0  0  0  0  0  0  0
    7.0367   11.0229   21.9948 O   0  0  0  0  0  0  0  0  0  0  0  0
  1  8  4  0
  1 12  4  0
  2  9  1  0
  2 11  4  0
  2 25  4  0
  3 12  4  0
  3 14  1  0
  3 23  4  0
  4 13  4  0
  4 21  4  0
  4 24  1  0
  5  8  4  0
  5 23  4  0
  6 18  2  0
  7 15  4  0
  7 16  1  0
  7 27  4  0
  8 18  1  0
 10 18  1  0
 10 20  1  0
 11 15  4  0
 11 26  1  0
 13 22  4  0
 16 19  1  0
 16 20  2  0
 17 19  4  0
 17 21  4  0
 19 22  4  0
 20 28  1  0
 25 27  4  0
M  END
$$$$

 Created by Python create_sdf_string function

 28 30  0  0  0  0  0  0  0  0999 V2000
   11.4592   11.2893   18.7941 C   0  0  0  0  0  0  0  0  0  0  0  0
    3.4202    7.9009   20.3866 C   0  0  0  0  0  0  0  0  0  0  0  0
   13.5280   10.3522   19.3586 C   0  0  0  0  0  0  0  0  0  0  0  0
    9.6923    5.6468   22.7891 C   0  0  0  0  0  0  0  0  0  0  0  0
   11.7756   10.2554   20.8841 N   0  0  0  0  0  0  0  0  0  0  0  0
    8.9876   11.9370   19.8757 O   0  0  0  0  0  0  0  0  0  0  0  0
    6.0167    8.4478   21.1089 C   0  0  0  0  0  0  0  0  0  0  0  0
   11.0002   10.8890   20.0262 C   0  0  0  0  0  0  0  0  0  0  0  0
    2.1721    7.7393   20.0315 O   0  0  0  0  0  0  0  0  0  0  0  0
    9.1107   10.3880   21.3769 N   0  0  0  0  0  0  0  0  0  0  0  0
    3.9102    9.2008   20.3124 C   0  0  0  0  0  0  0  0  0  0  0  0
   12.7292   10.9960   18.4597 C   0  0  0  0  0  0  0  0  0  0  0  0
    9.3798    6.6793   23.6625 C   0  0  0  0  0  0  0  0  0  0  0  0
   14.7425   10.0739   19.0802 O   0  0  0  0  0  0  0  0  0  0  0  0
    5.1894    9.4673   20.7118 C   0  0  0  0  0  0  0  0  0  0  0  0
    7.3773    8.8224   21.4870 C   0  0  0  0  0  0  0  0  0  0  0  0
    8.4391    6.6439   21.0235 C   0  0  0  0  0  0  0  0  0  0  0  0
    9.6494   11.1353   20.4167 C   0  0  0  0  0  0  0  0  0  0  0  0
    8.1431    7.6829   21.9046 C   0  0  0  0  0  0  0  0  0  0  0  0
    7.7796   10.1314   21.5115 N   0  0  0  0  0  0  0  0  0  0  0  0
    9.2768    5.6183   21.4437 C   0  0  0  0  0  0  0  0  0  0  0  0
    8.6315    7.7322   23.1768 C   0  0  0  0  0  0  0  0  0  0  0  0
   13.0537    9.9821   20.5781 C   0  0  0  0  0  0  0  0  0  0  0  0
   10.3850    4.6575   23.2386 O   0  0  0  0  0  0  0  0  0  0  0  0
    4.2069    6.8450   20.7994 C   0  0  0  0  0  0  0  0  0  0  0  0
    3.0726   10.1043   19.8522 O   0  0  0  0  0  0  0  0  0  0  0  0
    5.5057    7.1196   21.1155 C   0  0  0  0  0  0  0  0  0  0  0  0
    7.0367   11.0229   21.9948 O   0  0  0  0  0  0  0  0  0  0  0  0
  1  8  4  0
  1 12  4  0
  2  9  1  0
  2 11  4  0
  2 25  4  0
  3 12  4  0
  3 14  1  0
  3 23  4  0
  4 13  4  0
  4 21  4  0
  4 24  1  0
  5  8  4  0
  5 23  4  0
  6 18  2  0
  7 15  4  0
  7 16  1  0
  7 27  4  0
  8 18  1  0
 10 18  1  0
 10 20  1  0
 11 15  4  0
 11 26  1  0
 13 22  4  0
 16 19  1  0
 16 20  2  0
 17 19  4  0
 17 21  4  0
 19 22  4  0
 20 28  1  0
 25 27  4  0
M  END
$$$$

 Created by Python create_sdf_string function

 28 30  0  0  0  0  0  0  0  0999 V2000
   11.4592   11.2893   18.7941 C   0  0  0  0  0  0  0  0  0  0  0  0
    3.4202    7.9009   20.3866 C   0  0  0  0  0  0  0  0  0  0  0  0
   13.5280   10.3522   19.3586 C   0  0  0  0  0  0  0  0  0  0  0  0
    9.6923    5.6468   22.7891 C   0  0  0  0  0  0  0  0  0  0  0  0
   11.7756   10.2554   20.8841 N   0  0  0  0  0  0  0  0  0  0  0  0
    8.9876   11.9370   19.8757 O   0  0  0  0  0  0  0  0  0  0  0  0
    6.0167    8.4478   21.1089 C   0  0  0  0  0  0  0  0  0  0  0  0
   11.0002   10.8890   20.0262 C   0  0  0  0  0  0  0  0  0  0  0  0
    2.1721    7.7393   20.0315 O   0  0  0  0  0  0  0  0  0  0  0  0
    9.1107   10.3880   21.3769 N   0  0  0  0  0  0  0  0  0  0  0  0
    3.9102    9.2008   20.3124 C   0  0  0  0  0  0  0  0  0  0  0  0
   12.7292   10.9960   18.4597 C   0  0  0  0  0  0  0  0  0  0  0  0
    9.3798    6.6793   23.6625 C   0  0  0  0  0  0  0  0  0  0  0  0
   14.7425   10.0739   19.0802 O   0  0  0  0  0  0  0  0  0  0  0  0
    5.1894    9.4673   20.7118 C   0  0  0  0  0  0  0  0  0  0  0  0
    7.3773    8.8224   21.4870 C   0  0  0  0  0  0  0  0  0  0  0  0
    8.4391    6.6439   21.0235 C   0  0  0  0  0  0  0  0  0  0  0  0
    9.6494   11.1353   20.4167 C   0  0  0  0  0  0  0  0  0  0  0  0
    8.1431    7.6829   21.9046 C   0  0  0  0  0  0  0  0  0  0  0  0
    7.7796   10.1314   21.5115 N   0  0  0  0  0  0  0  0  0  0  0  0
    9.2768    5.6183   21.4437 C   0  0  0  0  0  0  0  0  0  0  0  0
    8.6315    7.7322   23.1768 C   0  0  0  0  0  0  0  0  0  0  0  0
   13.0537    9.9821   20.5781 C   0  0  0  0  0  0  0  0  0  0  0  0
   10.3850    4.6575   23.2386 O   0  0  0  0  0  0  0  0  0  0  0  0
    4.2069    6.8450   20.7994 C   0  0  0  0  0  0  0  0  0  0  0  0
    3.0726   10.1043   19.8522 O   0  0  0  0  0  0  0  0  0  0  0  0
    5.5057    7.1196   21.1155 C   0  0  0  0  0  0  0  0  0  0  0  0
    7.0367   11.0229   21.9948 O   0  0  0  0  0  0  0  0  0  0  0  0
  1  8  4  0
  1 12  4  0
  2  9  1  0
  2 11  4  0
  2 25  4  0
  3 12  4  0
  3 14  1  0
  3 23  4  0
  4 13  4  0
  4 21  4  0
  4 24  1  0
  5  8  4  0
  5 23  4  0
  6 18  2  0
  7 15  4  0
  7 16  1  0
  7 27  4  0
  8 18  1  0
 10 18  1  0
 10 20  1  0
 11 15  4  0
 11 26  1  0
 13 22  4  0
 16 19  1  0
 16 20  2  0
 17 19  4  0
 17 21  4  0
 19 22  4  0
 20 28  1  0
 25 27  4  0
M  END
$$$$

 Created by Python create_sdf_string function

 28 30  0  0  0  0  0  0  0  0999 V2000
   11.4592   11.2893   18.7941 C   0  0  0  0  0  0  0  0  0  0  0  0
    3.4202    7.9009   20.3866 C   0  0  0  0  0  0  0  0  0  0  0  0
   13.5280   10.3522   19.3586 C   0  0  0  0  0  0  0  0  0  0  0  0
    9.6923    5.6468   22.7891 C   0  0  0  0  0  0  0  0  0  0  0  0
   11.7756   10.2554   20.8841 N   0  0  0  0  0  0  0  0  0  0  0  0
    8.9876   11.9370   19.8757 O   0  0  0  0  0  0  0  0  0  0  0  0
    6.0167    8.4478   21.1089 C   0  0  0  0  0  0  0  0  0  0  0  0
   11.0002   10.8890   20.0262 C   0  0  0  0  0  0  0  0  0  0  0  0
    2.1721    7.7393   20.0315 O   0  0  0  0  0  0  0  0  0  0  0  0
    9.1107   10.3880   21.3769 N   0  0  0  0  0  0  0  0  0  0  0  0
    3.9102    9.2008   20.3124 C   0  0  0  0  0  0  0  0  0  0  0  0
   12.7292   10.9960   18.4597 C   0  0  0  0  0  0  0  0  0  0  0  0
    9.3798    6.6793   23.6625 C   0  0  0  0  0  0  0  0  0  0  0  0
   14.7425   10.0739   19.0802 O   0  0  0  0  0  0  0  0  0  0  0  0
    5.1894    9.4673   20.7118 C   0  0  0  0  0  0  0  0  0  0  0  0
    7.3773    8.8224   21.4870 C   0  0  0  0  0  0  0  0  0  0  0  0
    8.4391    6.6439   21.0235 C   0  0  0  0  0  0  0  0  0  0  0  0
    9.6494   11.1353   20.4167 C   0  0  0  0  0  0  0  0  0  0  0  0
    8.1431    7.6829   21.9046 C   0  0  0  0  0  0  0  0  0  0  0  0
    7.7796   10.1314   21.5115 N   0  0  0  0  0  0  0  0  0  0  0  0
    9.2768    5.6183   21.4437 C   0  0  0  0  0  0  0  0  0  0  0  0
    8.6315    7.7322   23.1768 C   0  0  0  0  0  0  0  0  0  0  0  0
   13.0537    9.9821   20.5781 C   0  0  0  0  0  0  0  0  0  0  0  0
   10.3850    4.6575   23.2386 O   0  0  0  0  0  0  0  0  0  0  0  0
    4.2069    6.8450   20.7994 C   0  0  0  0  0  0  0  0  0  0  0  0
    3.0726   10.1043   19.8522 O   0  0  0  0  0  0  0  0  0  0  0  0
    5.5057    7.1196   21.1155 C   0  0  0  0  0  0  0  0  0  0  0  0
    7.0367   11.0229   21.9948 O   0  0  0  0  0  0  0  0  0  0  0  0
  1  8  4  0
  1 12  4  0
  2  9  1  0
  2 11  4  0
  2 25  4  0
  3 12  4  0
  3 14  1  0
  3 23  4  0
  4 13  4  0
  4 21  4  0
  4 24  1  0
  5  8  4  0
  5 23  4  0
  6 18  2  0
  7 15  4  0
  7 16  1  0
  7 27  4  0
  8 18  1  0
 10 18  1  0
 10 20  1  0
 11 15  4  0
 11 26  1  0
 13 22  4  0
 16 19  1  0
 16 20  2  0
 17 19  4  0
 17 21  4  0
 19 22  4  0
 20 28  1  0
 25 27  4  0
M  END
$$$$

 Created by Python create_sdf_string function

 28 30  0  0  0  0  0  0  0  0999 V2000
   11.4592   11.2893   18.7941 C   0  0  0  0  0  0  0  0  0  0  0  0
    3.4202    7.9009   20.3866 C   0  0  0  0  0  0  0  0  0  0  0  0
   13.5280   10.3522   19.3586 C   0  0  0  0  0  0  0  0  0  0  0  0
    9.6923    5.6468   22.7891 C   0  0  0  0  0  0  0  0  0  0  0  0
   11.7756   10.2554   20.8841 N   0  0  0  0  0  0  0  0  0  0  0  0
    8.9876   11.9370   19.8757 O   0  0  0  0  0  0  0  0  0  0  0  0
    6.0167    8.4478   21.1089 C   0  0  0  0  0  0  0  0  0  0  0  0
   11.0002   10.8890   20.0262 C   0  0  0  0  0  0  0  0  0  0  0  0
    2.1721    7.7393   20.0315 O   0  0  0  0  0  0  0  0  0  0  0  0
    9.1107   10.3880   21.3769 N   0  0  0  0  0  0  0  0  0  0  0  0
    3.9102    9.2008   20.3124 C   0  0  0  0  0  0  0  0  0  0  0  0
   12.7292   10.9960   18.4597 C   0  0  0  0  0  0  0  0  0  0  0  0
    9.3798    6.6793   23.6625 C   0  0  0  0  0  0  0  0  0  0  0  0
   14.7425   10.0739   19.0802 O   0  0  0  0  0  0  0  0  0  0  0  0
    5.1894    9.4673   20.7118 C   0  0  0  0  0  0  0  0  0  0  0  0
    7.3773    8.8224   21.4870 C   0  0  0  0  0  0  0  0  0  0  0  0
    8.4391    6.6439   21.0235 C   0  0  0  0  0  0  0  0  0  0  0  0
    9.6494   11.1353   20.4167 C   0  0  0  0  0  0  0  0  0  0  0  0
    8.1431    7.6829   21.9046 C   0  0  0  0  0  0  0  0  0  0  0  0
    7.7796   10.1314   21.5115 N   0  0  0  0  0  0  0  0  0  0  0  0
    9.2768    5.6183   21.4437 C   0  0  0  0  0  0  0  0  0  0  0  0
    8.6315    7.7322   23.1768 C   0  0  0  0  0  0  0  0  0  0  0  0
   13.0537    9.9821   20.5781 C   0  0  0  0  0  0  0  0  0  0  0  0
   10.3850    4.6575   23.2386 O   0  0  0  0  0  0  0  0  0  0  0  0
    4.2069    6.8450   20.7994 C   0  0  0  0  0  0  0  0  0  0  0  0
    3.0726   10.1043   19.8522 O   0  0  0  0  0  0  0  0  0  0  0  0
    5.5057    7.1196   21.1155 C   0  0  0  0  0  0  0  0  0  0  0  0
    7.0367   11.0229   21.9948 O   0  0  0  0  0  0  0  0  0  0  0  0
  1  8  4  0
  1 12  4  0
  2  9  1  0
  2 11  4  0
  2 25  4  0
  3 12  4  0
  3 14  1  0
  3 23  4  0
  4 13  4  0
  4 21  4  0
  4 24  1  0
  5  8  4  0
  5 23  4  0
  6 18  2  0
  7 15  4  0
  7 16  1  0
  7 27  4  0
  8 18  1  0
 10 18  1  0
 10 20  1  0
 11 15  4  0
 11 26  1  0
 13 22  4  0
 16 19  1  0
 16 20  2  0
 17 19  4  0
 17 21  4  0
 19 22  4  0
 20 28  1  0
 25 27  4  0
M  END
$$$$

 Created by Python create_sdf_string function

 28 30  0  0  0  0  0  0  0  0999 V2000
   11.4592   11.2893   18.7941 C   0  0  0  0  0  0  0  0  0  0  0  0
    3.4202    7.9009   20.3866 C   0  0  0  0  0  0  0  0  0  0  0  0
   13.5280   10.3522   19.3586 C   0  0  0  0  0  0  0  0  0  0  0  0
    9.6923    5.6468   22.7891 C   0  0  0  0  0  0  0  0  0  0  0  0
   11.7756   10.2554   20.8841 N   0  0  0  0  0  0  0  0  0  0  0  0
    8.9876   11.9370   19.8757 O   0  0  0  0  0  0  0  0  0  0  0  0
    6.0167    8.4478   21.1089 C   0  0  0  0  0  0  0  0  0  0  0  0
   11.0002   10.8890   20.0262 C   0  0  0  0  0  0  0  0  0  0  0  0
    2.1721    7.7393   20.0315 O   0  0  0  0  0  0  0  0  0  0  0  0
    9.1107   10.3880   21.3769 N   0  0  0  0  0  0  0  0  0  0  0  0
    3.9102    9.2008   20.3124 C   0  0  0  0  0  0  0  0  0  0  0  0
   12.7292   10.9960   18.4597 C   0  0  0  0  0  0  0  0  0  0  0  0
    9.3798    6.6793   23.6625 C   0  0  0  0  0  0  0  0  0  0  0  0
   14.7425   10.0739   19.0802 O   0  0  0  0  0  0  0  0  0  0  0  0
    5.1894    9.4673   20.7118 C   0  0  0  0  0  0  0  0  0  0  0  0
    7.3773    8.8224   21.4870 C   0  0  0  0  0  0  0  0  0  0  0  0
    8.4391    6.6439   21.0235 C   0  0  0  0  0  0  0  0  0  0  0  0
    9.6494   11.1353   20.4167 C   0  0  0  0  0  0  0  0  0  0  0  0
    8.1431    7.6829   21.9046 C   0  0  0  0  0  0  0  0  0  0  0  0
    7.7796   10.1314   21.5115 N   0  0  0  0  0  0  0  0  0  0  0  0
    9.2768    5.6183   21.4437 C   0  0  0  0  0  0  0  0  0  0  0  0
    8.6315    7.7322   23.1768 C   0  0  0  0  0  0  0  0  0  0  0  0
   13.0537    9.9821   20.5781 C   0  0  0  0  0  0  0  0  0  0  0  0
   10.3850    4.6575   23.2386 O   0  0  0  0  0  0  0  0  0  0  0  0
    4.2069    6.8450   20.7994 C   0  0  0  0  0  0  0  0  0  0  0  0
    3.0726   10.1043   19.8522 O   0  0  0  0  0  0  0  0  0  0  0  0
    5.5057    7.1196   21.1155 C   0  0  0  0  0  0  0  0  0  0  0  0
    7.0367   11.0229   21.9948 O   0  0  0  0  0  0  0  0  0  0  0  0
  1  8  4  0
  1 12  4  0
  2  9  1  0
  2 11  4  0
  2 25  4  0
  3 12  4  0
  3 14  1  0
  3 23  4  0
  4 13  4  0
  4 21  4  0
  4 24  1  0
  5  8  4  0
  5 23  4  0
  6 18  2  0
  7 15  4  0
  7 16  1  0
  7 27  4  0
  8 18  1  0
 10 18  1  0
 10 20  1  0
 11 15  4  0
 11 26  1  0
 13 22  4  0
 16 19  1  0
 16 20  2  0
 17 19  4  0
 17 21  4  0
 19 22  4  0
 20 28  1  0
 25 27  4  0
M  END
$$$$

 Created by Python create_sdf_string function

 28 30  0  0  0  0  0  0  0  0999 V2000
   11.4592   11.2893   18.7941 C   0  0  0  0  0  0  0  0  0  0  0  0
    3.4202    7.9009   20.3866 C   0  0  0  0  0  0  0  0  0  0  0  0
   13.5280   10.3522   19.3586 C   0  0  0  0  0  0  0  0  0  0  0  0
    9.6923    5.6468   22.7891 C   0  0  0  0  0  0  0  0  0  0  0  0
   11.7756   10.2554   20.8841 N   0  0  0  0  0  0  0  0  0  0  0  0
    8.9876   11.9370   19.8757 O   0  0  0  0  0  0  0  0  0  0  0  0
    6.0167    8.4478   21.1089 C   0  0  0  0  0  0  0  0  0  0  0  0
   11.0002   10.8890   20.0262 C   0  0  0  0  0  0  0  0  0  0  0  0
    2.1721    7.7393   20.0315 O   0  0  0  0  0  0  0  0  0  0  0  0
    9.1107   10.3880   21.3769 N   0  0  0  0  0  0  0  0  0  0  0  0
    3.9102    9.2008   20.3124 C   0  0  0  0  0  0  0  0  0  0  0  0
   12.7292   10.9960   18.4597 C   0  0  0  0  0  0  0  0  0  0  0  0
    9.3798    6.6793   23.6625 C   0  0  0  0  0  0  0  0  0  0  0  0
   14.7425   10.0739   19.0802 O   0  0  0  0  0  0  0  0  0  0  0  0
    5.1894    9.4673   20.7118 C   0  0  0  0  0  0  0  0  0  0  0  0
    7.3773    8.8224   21.4870 C   0  0  0  0  0  0  0  0  0  0  0  0
    8.4391    6.6439   21.0235 C   0  0  0  0  0  0  0  0  0  0  0  0
    9.6494   11.1353   20.4167 C   0  0  0  0  0  0  0  0  0  0  0  0
    8.1431    7.6829   21.9046 C   0  0  0  0  0  0  0  0  0  0  0  0
    7.7796   10.1314   21.5115 N   0  0  0  0  0  0  0  0  0  0  0  0
    9.2768    5.6183   21.4437 C   0  0  0  0  0  0  0  0  0  0  0  0
    8.6315    7.7322   23.1768 C   0  0  0  0  0  0  0  0  0  0  0  0
   13.0537    9.9821   20.5781 C   0  0  0  0  0  0  0  0  0  0  0  0
   10.3850    4.6575   23.2386 O   0  0  0  0  0  0  0  0  0  0  0  0
    4.2069    6.8450   20.7994 C   0  0  0  0  0  0  0  0  0  0  0  0
    3.0726   10.1043   19.8522 O   0  0  0  0  0  0  0  0  0  0  0  0
    5.5057    7.1196   21.1155 C   0  0  0  0  0  0  0  0  0  0  0  0
    7.0367   11.0229   21.9948 O   0  0  0  0  0  0  0  0  0  0  0  0
  1  8  4  0
  1 12  4  0
  2  9  1  0
  2 11  4  0
  2 25  4  0
  3 12  4  0
  3 14  1  0
  3 23  4  0
  4 13  4  0
  4 21  4  0
  4 24  1  0
  5  8  4  0
  5 23  4  0
  6 18  2  0
  7 15  4  0
  7 16  1  0
  7 27  4  0
  8 18  1  0
 10 18  1  0
 10 20  1  0
 11 15  4  0
 11 26  1  0
 13 22  4  0
 16 19  1  0
 16 20  2  0
 17 19  4  0
 17 21  4  0
 19 22  4  0
 20 28  1  0
 25 27  4  0
M  END
$$$$

 Created by Python create_sdf_string function

 28 30  0  0  0  0  0  0  0  0999 V2000
   11.4592   11.2893   18.7941 C   0  0  0  0  0  0  0  0  0  0  0  0
    3.4202    7.9009   20.3866 C   0  0  0  0  0  0  0  0  0  0  0  0
   13.5280   10.3522   19.3586 C   0  0  0  0  0  0  0  0  0  0  0  0
    9.6923    5.6468   22.7891 C   0  0  0  0  0  0  0  0  0  0  0  0
   11.7756   10.2554   20.8841 N   0  0  0  0  0  0  0  0  0  0  0  0
    8.9876   11.9370   19.8757 O   0  0  0  0  0  0  0  0  0  0  0  0
    6.0167    8.4478   21.1089 C   0  0  0  0  0  0  0  0  0  0  0  0
   11.0002   10.8890   20.0262 C   0  0  0  0  0  0  0  0  0  0  0  0
    2.1721    7.7393   20.0315 O   0  0  0  0  0  0  0  0  0  0  0  0
    9.1107   10.3880   21.3769 N   0  0  0  0  0  0  0  0  0  0  0  0
    3.9102    9.2008   20.3124 C   0  0  0  0  0  0  0  0  0  0  0  0
   12.7292   10.9960   18.4597 C   0  0  0  0  0  0  0  0  0  0  0  0
    9.3798    6.6793   23.6625 C   0  0  0  0  0  0  0  0  0  0  0  0
   14.7425   10.0739   19.0802 O   0  0  0  0  0  0  0  0  0  0  0  0
    5.1894    9.4673   20.7118 C   0  0  0  0  0  0  0  0  0  0  0  0
    7.3773    8.8224   21.4870 C   0  0  0  0  0  0  0  0  0  0  0  0
    8.4391    6.6439   21.0235 C   0  0  0  0  0  0  0  0  0  0  0  0
    9.6494   11.1353   20.4167 C   0  0  0  0  0  0  0  0  0  0  0  0
    8.1431    7.6829   21.9046 C   0  0  0  0  0  0  0  0  0  0  0  0
    7.7796   10.1314   21.5115 N   0  0  0  0  0  0  0  0  0  0  0  0
    9.2768    5.6183   21.4437 C   0  0  0  0  0  0  0  0  0  0  0  0
    8.6315    7.7322   23.1768 C   0  0  0  0  0  0  0  0  0  0  0  0
   13.0537    9.9821   20.5781 C   0  0  0  0  0  0  0  0  0  0  0  0
   10.3850    4.6575   23.2386 O   0  0  0  0  0  0  0  0  0  0  0  0
    4.2069    6.8450   20.7994 C   0  0  0  0  0  0  0  0  0  0  0  0
    3.0726   10.1043   19.8522 O   0  0  0  0  0  0  0  0  0  0  0  0
    5.5057    7.1196   21.1155 C   0  0  0  0  0  0  0  0  0  0  0  0
    7.0367   11.0229   21.9948 O   0  0  0  0  0  0  0  0  0  0  0  0
  1  8  4  0
  1 12  4  0
  2  9  1  0
  2 11  4  0
  2 25  4  0
  3 12  4  0
  3 14  1  0
  3 23  4  0
  4 13  4  0
  4 21  4  0
  4 24  1  0
  5  8  4  0
  5 23  4  0
  6 18  2  0
  7 15  4  0
  7 16  1  0
  7 27  4  0
  8 18  1  0
 10 18  1  0
 10 20  1  0
 11 15  4  0
 11 26  1  0
 13 22  4  0
 16 19  1  0
 16 20  2  0
 17 19  4  0
 17 21  4  0
 19 22  4  0
 20 28  1  0
 25 27  4  0
M  END
$$$$

 Created by Python create_sdf_string function

 28 30  0  0  0  0  0  0  0  0999 V2000
   11.4592   11.2893   18.7941 C   0  0  0  0  0  0  0  0  0  0  0  0
    3.4202    7.9009   20.3866 C   0  0  0  0  0  0  0  0  0  0  0  0
   13.5280   10.3522   19.3586 C   0  0  0  0  0  0  0  0  0  0  0  0
    9.6923    5.6468   22.7891 C   0  0  0  0  0  0  0  0  0  0  0  0
   11.7756   10.2554   20.8841 N   0  0  0  0  0  0  0  0  0  0  0  0
    8.9876   11.9370   19.8757 O   0  0  0  0  0  0  0  0  0  0  0  0
    6.0167    8.4478   21.1089 C   0  0  0  0  0  0  0  0  0  0  0  0
   11.0002   10.8890   20.0262 C   0  0  0  0  0  0  0  0  0  0  0  0
    2.1721    7.7393   20.0315 O   0  0  0  0  0  0  0  0  0  0  0  0
    9.1107   10.3880   21.3769 N   0  0  0  0  0  0  0  0  0  0  0  0
    3.9102    9.2008   20.3124 C   0  0  0  0  0  0  0  0  0  0  0  0
   12.7292   10.9960   18.4597 C   0  0  0  0  0  0  0  0  0  0  0  0
    9.3798    6.6793   23.6625 C   0  0  0  0  0  0  0  0  0  0  0  0
   14.7425   10.0739   19.0802 O   0  0  0  0  0  0  0  0  0  0  0  0
    5.1894    9.4673   20.7118 C   0  0  0  0  0  0  0  0  0  0  0  0
    7.3773    8.8224   21.4870 C   0  0  0  0  0  0  0  0  0  0  0  0
    8.4391    6.6439   21.0235 C   0  0  0  0  0  0  0  0  0  0  0  0
    9.6494   11.1353   20.4167 C   0  0  0  0  0  0  0  0  0  0  0  0
    8.1431    7.6829   21.9046 C   0  0  0  0  0  0  0  0  0  0  0  0
    7.7796   10.1314   21.5115 N   0  0  0  0  0  0  0  0  0  0  0  0
    9.2768    5.6183   21.4437 C   0  0  0  0  0  0  0  0  0  0  0  0
    8.6315    7.7322   23.1768 C   0  0  0  0  0  0  0  0  0  0  0  0
   13.0537    9.9821   20.5781 C   0  0  0  0  0  0  0  0  0  0  0  0
   10.3850    4.6575   23.2386 O   0  0  0  0  0  0  0  0  0  0  0  0
    4.2069    6.8450   20.7994 C   0  0  0  0  0  0  0  0  0  0  0  0
    3.0726   10.1043   19.8522 O   0  0  0  0  0  0  0  0  0  0  0  0
    5.5057    7.1196   21.1155 C   0  0  0  0  0  0  0  0  0  0  0  0
    7.0367   11.0229   21.9948 O   0  0  0  0  0  0  0  0  0  0  0  0
  1  8  4  0
  1 12  4  0
  2  9  1  0
  2 11  4  0
  2 25  4  0
  3 12  4  0
  3 14  1  0
  3 23  4  0
  4 13  4  0
  4 21  4  0
  4 24  1  0
  5  8  4  0
  5 23  4  0
  6 18  2  0
  7 15  4  0
  7 16  1  0
  7 27  4  0
  8 18  1  0
 10 18  1  0
 10 20  1  0
 11 15  4  0
 11 26  1  0
 13 22  4  0
 16 19  1  0
 16 20  2  0
 17 19  4  0
 17 21  4  0
 19 22  4  0
 20 28  1  0
 25 27  4  0
M  END
$$$$

 Created by Python create_sdf_string function

 28 30  0  0  0  0  0  0  0  0999 V2000
   11.4592   11.2893   18.7941 C   0  0  0  0  0  0  0  0  0  0  0  0
    3.4202    7.9009   20.3866 C   0  0  0  0  0  0  0  0  0  0  0  0
   13.5280   10.3522   19.3586 C   0  0  0  0  0  0  0  0  0  0  0  0
    9.6923    5.6468   22.7891 C   0  0  0  0  0  0  0  0  0  0  0  0
   11.7756   10.2554   20.8841 N   0  0  0  0  0  0  0  0  0  0  0  0
    8.9876   11.9370   19.8757 O   0  0  0  0  0  0  0  0  0  0  0  0
    6.0167    8.4478   21.1089 C   0  0  0  0  0  0  0  0  0  0  0  0
   11.0002   10.8890   20.0262 C   0  0  0  0  0  0  0  0  0  0  0  0
    2.1721    7.7393   20.0315 O   0  0  0  0  0  0  0  0  0  0  0  0
    9.1107   10.3880   21.3769 N   0  0  0  0  0  0  0  0  0  0  0  0
    3.9102    9.2008   20.3124 C   0  0  0  0  0  0  0  0  0  0  0  0
   12.7292   10.9960   18.4597 C   0  0  0  0  0  0  0  0  0  0  0  0
    9.3798    6.6793   23.6625 C   0  0  0  0  0  0  0  0  0  0  0  0
   14.7425   10.0739   19.0802 O   0  0  0  0  0  0  0  0  0  0  0  0
    5.1894    9.4673   20.7118 C   0  0  0  0  0  0  0  0  0  0  0  0
    7.3773    8.8224   21.4870 C   0  0  0  0  0  0  0  0  0  0  0  0
    8.4391    6.6439   21.0235 C   0  0  0  0  0  0  0  0  0  0  0  0
    9.6494   11.1353   20.4167 C   0  0  0  0  0  0  0  0  0  0  0  0
    8.1431    7.6829   21.9046 C   0  0  0  0  0  0  0  0  0  0  0  0
    7.7796   10.1314   21.5115 N   0  0  0  0  0  0  0  0  0  0  0  0
    9.2768    5.6183   21.4437 C   0  0  0  0  0  0  0  0  0  0  0  0
    8.6315    7.7322   23.1768 C   0  0  0  0  0  0  0  0  0  0  0  0
   13.0537    9.9821   20.5781 C   0  0  0  0  0  0  0  0  0  0  0  0
   10.3850    4.6575   23.2386 O   0  0  0  0  0  0  0  0  0  0  0  0
    4.2069    6.8450   20.7994 C   0  0  0  0  0  0  0  0  0  0  0  0
    3.0726   10.1043   19.8522 O   0  0  0  0  0  0  0  0  0  0  0  0
    5.5057    7.1196   21.1155 C   0  0  0  0  0  0  0  0  0  0  0  0
    7.0367   11.0229   21.9948 O   0  0  0  0  0  0  0  0  0  0  0  0
  1  8  4  0
  1 12  4  0
  2  9  1  0
  2 11  4  0
  2 25  4  0
  3 12  4  0
  3 14  1  0
  3 23  4  0
  4 13  4  0
  4 21  4  0
  4 24  1  0
  5  8  4  0
  5 23  4  0
  6 18  2  0
  7 15  4  0
  7 16  1  0
  7 27  4  0
  8 18  1  0
 10 18  1  0
 10 20  1  0
 11 15  4  0
 11 26  1  0
 13 22  4  0
 16 19  1  0
 16 20  2  0
 17 19  4  0
 17 21  4  0
 19 22  4  0
 20 28  1  0
 25 27  4  0
M  END
$$$$

 Created by Python create_sdf_string function

 28 30  0  0  0  0  0  0  0  0999 V2000
   11.4592   11.2893   18.7941 C   0  0  0  0  0  0  0  0  0  0  0  0
    3.4202    7.9009   20.3866 C   0  0  0  0  0  0  0  0  0  0  0  0
   13.5280   10.3522   19.3586 C   0  0  0  0  0  0  0  0  0  0  0  0
    9.6923    5.6468   22.7891 C   0  0  0  0  0  0  0  0  0  0  0  0
   11.7756   10.2554   20.8841 N   0  0  0  0  0  0  0  0  0  0  0  0
    8.9876   11.9370   19.8757 O   0  0  0  0  0  0  0  0  0  0  0  0
    6.0167    8.4478   21.1089 C   0  0  0  0  0  0  0  0  0  0  0  0
   11.0002   10.8890   20.0262 C   0  0  0  0  0  0  0  0  0  0  0  0
    2.1721    7.7393   20.0315 O   0  0  0  0  0  0  0  0  0  0  0  0
    9.1107   10.3880   21.3769 N   0  0  0  0  0  0  0  0  0  0  0  0
    3.9102    9.2008   20.3124 C   0  0  0  0  0  0  0  0  0  0  0  0
   12.7292   10.9960   18.4597 C   0  0  0  0  0  0  0  0  0  0  0  0
    9.3798    6.6793   23.6625 C   0  0  0  0  0  0  0  0  0  0  0  0
   14.7425   10.0739   19.0802 O   0  0  0  0  0  0  0  0  0  0  0  0
    5.1894    9.4673   20.7118 C   0  0  0  0  0  0  0  0  0  0  0  0
    7.3773    8.8224   21.4870 C   0  0  0  0  0  0  0  0  0  0  0  0
    8.4391    6.6439   21.0235 C   0  0  0  0  0  0  0  0  0  0  0  0
    9.6494   11.1353   20.4167 C   0  0  0  0  0  0  0  0  0  0  0  0
    8.1431    7.6829   21.9046 C   0  0  0  0  0  0  0  0  0  0  0  0
    7.7796   10.1314   21.5115 N   0  0  0  0  0  0  0  0  0  0  0  0
    9.2768    5.6183   21.4437 C   0  0  0  0  0  0  0  0  0  0  0  0
    8.6315    7.7322   23.1768 C   0  0  0  0  0  0  0  0  0  0  0  0
   13.0537    9.9821   20.5781 C   0  0  0  0  0  0  0  0  0  0  0  0
   10.3850    4.6575   23.2386 O   0  0  0  0  0  0  0  0  0  0  0  0
    4.2069    6.8450   20.7994 C   0  0  0  0  0  0  0  0  0  0  0  0
    3.0726   10.1043   19.8522 O   0  0  0  0  0  0  0  0  0  0  0  0
    5.5057    7.1196   21.1155 C   0  0  0  0  0  0  0  0  0  0  0  0
    7.0367   11.0229   21.9948 O   0  0  0  0  0  0  0  0  0  0  0  0
  1  8  4  0
  1 12  4  0
  2  9  1  0
  2 11  4  0
  2 25  4  0
  3 12  4  0
  3 14  1  0
  3 23  4  0
  4 13  4  0
  4 21  4  0
  4 24  1  0
  5  8  4  0
  5 23  4  0
  6 18  2  0
  7 15  4  0
  7 16  1  0
  7 27  4  0
  8 18  1  0
 10 18  1  0
 10 20  1  0
 11 15  4  0
 11 26  1  0
 13 22  4  0
 16 19  1  0
 16 20  2  0
 17 19  4  0
 17 21  4  0
 19 22  4  0
 20 28  1  0
 25 27  4  0
M  END
$$$$

 Created by Python create_sdf_string function

 28 30  0  0  0  0  0  0  0  0999 V2000
   11.4592   11.2893   18.7941 C   0  0  0  0  0  0  0  0  0  0  0  0
    3.4202    7.9009   20.3866 C   0  0  0  0  0  0  0  0  0  0  0  0
   13.5280   10.3522   19.3586 C   0  0  0  0  0  0  0  0  0  0  0  0
    9.6923    5.6468   22.7891 C   0  0  0  0  0  0  0  0  0  0  0  0
   11.7756   10.2554   20.8841 N   0  0  0  0  0  0  0  0  0  0  0  0
    8.9876   11.9370   19.8757 O   0  0  0  0  0  0  0  0  0  0  0  0
    6.0167    8.4478   21.1089 C   0  0  0  0  0  0  0  0  0  0  0  0
   11.0002   10.8890   20.0262 C   0  0  0  0  0  0  0  0  0  0  0  0
    2.1721    7.7393   20.0315 O   0  0  0  0  0  0  0  0  0  0  0  0
    9.1107   10.3880   21.3769 N   0  0  0  0  0  0  0  0  0  0  0  0
    3.9102    9.2008   20.3124 C   0  0  0  0  0  0  0  0  0  0  0  0
   12.7292   10.9960   18.4597 C   0  0  0  0  0  0  0  0  0  0  0  0
    9.3798    6.6793   23.6625 C   0  0  0  0  0  0  0  0  0  0  0  0
   14.7425   10.0739   19.0802 O   0  0  0  0  0  0  0  0  0  0  0  0
    5.1894    9.4673   20.7118 C   0  0  0  0  0  0  0  0  0  0  0  0
    7.3773    8.8224   21.4870 C   0  0  0  0  0  0  0  0  0  0  0  0
    8.4391    6.6439   21.0235 C   0  0  0  0  0  0  0  0  0  0  0  0
    9.6494   11.1353   20.4167 C   0  0  0  0  0  0  0  0  0  0  0  0
    8.1431    7.6829   21.9046 C   0  0  0  0  0  0  0  0  0  0  0  0
    7.7796   10.1314   21.5115 N   0  0  0  0  0  0  0  0  0  0  0  0
    9.2768    5.6183   21.4437 C   0  0  0  0  0  0  0  0  0  0  0  0
    8.6315    7.7322   23.1768 C   0  0  0  0  0  0  0  0  0  0  0  0
   13.0537    9.9821   20.5781 C   0  0  0  0  0  0  0  0  0  0  0  0
   10.3850    4.6575   23.2386 O   0  0  0  0  0  0  0  0  0  0  0  0
    4.2069    6.8450   20.7994 C   0  0  0  0  0  0  0  0  0  0  0  0
    3.0726   10.1043   19.8522 O   0  0  0  0  0  0  0  0  0  0  0  0
    5.5057    7.1196   21.1155 C   0  0  0  0  0  0  0  0  0  0  0  0
    7.0367   11.0229   21.9948 O   0  0  0  0  0  0  0  0  0  0  0  0
  1  8  4  0
  1 12  4  0
  2  9  1  0
  2 11  4  0
  2 25  4  0
  3 12  4  0
  3 14  1  0
  3 23  4  0
  4 13  4  0
  4 21  4  0
  4 24  1  0
  5  8  4  0
  5 23  4  0
  6 18  2  0
  7 15  4  0
  7 16  1  0
  7 27  4  0
  8 18  1  0
 10 18  1  0
 10 20  1  0
 11 15  4  0
 11 26  1  0
 13 22  4  0
 16 19  1  0
 16 20  2  0
 17 19  4  0
 17 21  4  0
 19 22  4  0
 20 28  1  0
 25 27  4  0
M  END
$$$$

 Created by Python create_sdf_string function

 28 30  0  0  0  0  0  0  0  0999 V2000
   11.4592   11.2893   18.7941 C   0  0  0  0  0  0  0  0  0  0  0  0
    3.4202    7.9009   20.3866 C   0  0  0  0  0  0  0  0  0  0  0  0
   13.5280   10.3522   19.3586 C   0  0  0  0  0  0  0  0  0  0  0  0
    9.6923    5.6468   22.7891 C   0  0  0  0  0  0  0  0  0  0  0  0
   11.7756   10.2554   20.8841 N   0  0  0  0  0  0  0  0  0  0  0  0
    8.9876   11.9370   19.8757 O   0  0  0  0  0  0  0  0  0  0  0  0
    6.0167    8.4478   21.1089 C   0  0  0  0  0  0  0  0  0  0  0  0
   11.0002   10.8890   20.0262 C   0  0  0  0  0  0  0  0  0  0  0  0
    2.1721    7.7393   20.0315 O   0  0  0  0  0  0  0  0  0  0  0  0
    9.1107   10.3880   21.3769 N   0  0  0  0  0  0  0  0  0  0  0  0
    3.9102    9.2008   20.3124 C   0  0  0  0  0  0  0  0  0  0  0  0
   12.7292   10.9960   18.4597 C   0  0  0  0  0  0  0  0  0  0  0  0
    9.3798    6.6793   23.6625 C   0  0  0  0  0  0  0  0  0  0  0  0
   14.7425   10.0739   19.0802 O   0  0  0  0  0  0  0  0  0  0  0  0
    5.1894    9.4673   20.7118 C   0  0  0  0  0  0  0  0  0  0  0  0
    7.3773    8.8224   21.4870 C   0  0  0  0  0  0  0  0  0  0  0  0
    8.4391    6.6439   21.0235 C   0  0  0  0  0  0  0  0  0  0  0  0
    9.6494   11.1353   20.4167 C   0  0  0  0  0  0  0  0  0  0  0  0
    8.1431    7.6829   21.9046 C   0  0  0  0  0  0  0  0  0  0  0  0
    7.7796   10.1314   21.5115 N   0  0  0  0  0  0  0  0  0  0  0  0
    9.2768    5.6183   21.4437 C   0  0  0  0  0  0  0  0  0  0  0  0
    8.6315    7.7322   23.1768 C   0  0  0  0  0  0  0  0  0  0  0  0
   13.0537    9.9821   20.5781 C   0  0  0  0  0  0  0  0  0  0  0  0
   10.3850    4.6575   23.2386 O   0  0  0  0  0  0  0  0  0  0  0  0
    4.2069    6.8450   20.7994 C   0  0  0  0  0  0  0  0  0  0  0  0
    3.0726   10.1043   19.8522 O   0  0  0  0  0  0  0  0  0  0  0  0
    5.5057    7.1196   21.1155 C   0  0  0  0  0  0  0  0  0  0  0  0
    7.0367   11.0229   21.9948 O   0  0  0  0  0  0  0  0  0  0  0  0
  1  8  4  0
  1 12  4  0
  2  9  1  0
  2 11  4  0
  2 25  4  0
  3 12  4  0
  3 14  1  0
  3 23  4  0
  4 13  4  0
  4 21  4  0
  4 24  1  0
  5  8  4  0
  5 23  4  0
  6 18  2  0
  7 15  4  0
  7 16  1  0
  7 27  4  0
  8 18  1  0
 10 18  1  0
 10 20  1  0
 11 15  4  0
 11 26  1  0
 13 22  4  0
 16 19  1  0
 16 20  2  0
 17 19  4  0
 17 21  4  0
 19 22  4  0
 20 28  1  0
 25 27  4  0
M  END
$$$$

 Created by Python create_sdf_string function

 28 30  0  0  0  0  0  0  0  0999 V2000
   11.4592   11.2893   18.7941 C   0  0  0  0  0  0  0  0  0  0  0  0
    3.4202    7.9009   20.3866 C   0  0  0  0  0  0  0  0  0  0  0  0
   13.5280   10.3522   19.3586 C   0  0  0  0  0  0  0  0  0  0  0  0
    9.6923    5.6468   22.7891 C   0  0  0  0  0  0  0  0  0  0  0  0
   11.7756   10.2554   20.8841 N   0  0  0  0  0  0  0  0  0  0  0  0
    8.9876   11.9370   19.8757 O   0  0  0  0  0  0  0  0  0  0  0  0
    6.0167    8.4478   21.1089 C   0  0  0  0  0  0  0  0  0  0  0  0
   11.0002   10.8890   20.0262 C   0  0  0  0  0  0  0  0  0  0  0  0
    2.1721    7.7393   20.0315 O   0  0  0  0  0  0  0  0  0  0  0  0
    9.1107   10.3880   21.3769 N   0  0  0  0  0  0  0  0  0  0  0  0
    3.9102    9.2008   20.3124 C   0  0  0  0  0  0  0  0  0  0  0  0
   12.7292   10.9960   18.4597 C   0  0  0  0  0  0  0  0  0  0  0  0
    9.3798    6.6793   23.6625 C   0  0  0  0  0  0  0  0  0  0  0  0
   14.7425   10.0739   19.0802 O   0  0  0  0  0  0  0  0  0  0  0  0
    5.1894    9.4673   20.7118 C   0  0  0  0  0  0  0  0  0  0  0  0
    7.3773    8.8224   21.4870 C   0  0  0  0  0  0  0  0  0  0  0  0
    8.4391    6.6439   21.0235 C   0  0  0  0  0  0  0  0  0  0  0  0
    9.6494   11.1353   20.4167 C   0  0  0  0  0  0  0  0  0  0  0  0
    8.1431    7.6829   21.9046 C   0  0  0  0  0  0  0  0  0  0  0  0
    7.7796   10.1314   21.5115 N   0  0  0  0  0  0  0  0  0  0  0  0
    9.2768    5.6183   21.4437 C   0  0  0  0  0  0  0  0  0  0  0  0
    8.6315    7.7322   23.1768 C   0  0  0  0  0  0  0  0  0  0  0  0
   13.0537    9.9821   20.5781 C   0  0  0  0  0  0  0  0  0  0  0  0
   10.3850    4.6575   23.2386 O   0  0  0  0  0  0  0  0  0  0  0  0
    4.2069    6.8450   20.7994 C   0  0  0  0  0  0  0  0  0  0  0  0
    3.0726   10.1043   19.8522 O   0  0  0  0  0  0  0  0  0  0  0  0
    5.5057    7.1196   21.1155 C   0  0  0  0  0  0  0  0  0  0  0  0
    7.0367   11.0229   21.9948 O   0  0  0  0  0  0  0  0  0  0  0  0
  1  8  4  0
  1 12  4  0
  2  9  1  0
  2 11  4  0
  2 25  4  0
  3 12  4  0
  3 14  1  0
  3 23  4  0
  4 13  4  0
  4 21  4  0
  4 24  1  0
  5  8  4  0
  5 23  4  0
  6 18  2  0
  7 15  4  0
  7 16  1  0
  7 27  4  0
  8 18  1  0
 10 18  1  0
 10 20  1  0
 11 15  4  0
 11 26  1  0
 13 22  4  0
 16 19  1  0
 16 20  2  0
 17 19  4  0
 17 21  4  0
 19 22  4  0
 20 28  1  0
 25 27  4  0
M  END
$$$$

 Created by Python create_sdf_string function

 28 30  0  0  0  0  0  0  0  0999 V2000
   11.4592   11.2893   18.7941 C   0  0  0  0  0  0  0  0  0  0  0  0
    3.4202    7.9009   20.3866 C   0  0  0  0  0  0  0  0  0  0  0  0
   13.5280   10.3522   19.3586 C   0  0  0  0  0  0  0  0  0  0  0  0
    9.6923    5.6468   22.7891 C   0  0  0  0  0  0  0  0  0  0  0  0
   11.7756   10.2554   20.8841 N   0  0  0  0  0  0  0  0  0  0  0  0
    8.9876   11.9370   19.8757 O   0  0  0  0  0  0  0  0  0  0  0  0
    6.0167    8.4478   21.1089 C   0  0  0  0  0  0  0  0  0  0  0  0
   11.0002   10.8890   20.0262 C   0  0  0  0  0  0  0  0  0  0  0  0
    2.1721    7.7393   20.0315 O   0  0  0  0  0  0  0  0  0  0  0  0
    9.1107   10.3880   21.3769 N   0  0  0  0  0  0  0  0  0  0  0  0
    3.9102    9.2008   20.3124 C   0  0  0  0  0  0  0  0  0  0  0  0
   12.7292   10.9960   18.4597 C   0  0  0  0  0  0  0  0  0  0  0  0
    9.3798    6.6793   23.6625 C   0  0  0  0  0  0  0  0  0  0  0  0
   14.7425   10.0739   19.0802 O   0  0  0  0  0  0  0  0  0  0  0  0
    5.1894    9.4673   20.7118 C   0  0  0  0  0  0  0  0  0  0  0  0
    7.3773    8.8224   21.4870 C   0  0  0  0  0  0  0  0  0  0  0  0
    8.4391    6.6439   21.0235 C   0  0  0  0  0  0  0  0  0  0  0  0
    9.6494   11.1353   20.4167 C   0  0  0  0  0  0  0  0  0  0  0  0
    8.1431    7.6829   21.9046 C   0  0  0  0  0  0  0  0  0  0  0  0
    7.7796   10.1314   21.5115 N   0  0  0  0  0  0  0  0  0  0  0  0
    9.2768    5.6183   21.4437 C   0  0  0  0  0  0  0  0  0  0  0  0
    8.6315    7.7322   23.1768 C   0  0  0  0  0  0  0  0  0  0  0  0
   13.0537    9.9821   20.5781 C   0  0  0  0  0  0  0  0  0  0  0  0
   10.3850    4.6575   23.2386 O   0  0  0  0  0  0  0  0  0  0  0  0
    4.2069    6.8450   20.7994 C   0  0  0  0  0  0  0  0  0  0  0  0
    3.0726   10.1043   19.8522 O   0  0  0  0  0  0  0  0  0  0  0  0
    5.5057    7.1196   21.1155 C   0  0  0  0  0  0  0  0  0  0  0  0
    7.0367   11.0229   21.9948 O   0  0  0  0  0  0  0  0  0  0  0  0
  1  8  4  0
  1 12  4  0
  2  9  1  0
  2 11  4  0
  2 25  4  0
  3 12  4  0
  3 14  1  0
  3 23  4  0
  4 13  4  0
  4 21  4  0
  4 24  1  0
  5  8  4  0
  5 23  4  0
  6 18  2  0
  7 15  4  0
  7 16  1  0
  7 27  4  0
  8 18  1  0
 10 18  1  0
 10 20  1  0
 11 15  4  0
 11 26  1  0
 13 22  4  0
 16 19  1  0
 16 20  2  0
 17 19  4  0
 17 21  4  0
 19 22  4  0
 20 28  1  0
 25 27  4  0
M  END
$$$$

 Created by Python create_sdf_string function

 28 30  0  0  0  0  0  0  0  0999 V2000
   11.4592   11.2893   18.7941 C   0  0  0  0  0  0  0  0  0  0  0  0
    3.4202    7.9009   20.3866 C   0  0  0  0  0  0  0  0  0  0  0  0
   13.5280   10.3522   19.3586 C   0  0  0  0  0  0  0  0  0  0  0  0
    9.6923    5.6468   22.7891 C   0  0  0  0  0  0  0  0  0  0  0  0
   11.7756   10.2554   20.8841 N   0  0  0  0  0  0  0  0  0  0  0  0
    8.9876   11.9370   19.8757 O   0  0  0  0  0  0  0  0  0  0  0  0
    6.0167    8.4478   21.1089 C   0  0  0  0  0  0  0  0  0  0  0  0
   11.0002   10.8890   20.0262 C   0  0  0  0  0  0  0  0  0  0  0  0
    2.1721    7.7393   20.0315 O   0  0  0  0  0  0  0  0  0  0  0  0
    9.1107   10.3880   21.3769 N   0  0  0  0  0  0  0  0  0  0  0  0
    3.9102    9.2008   20.3124 C   0  0  0  0  0  0  0  0  0  0  0  0
   12.7292   10.9960   18.4597 C   0  0  0  0  0  0  0  0  0  0  0  0
    9.3798    6.6793   23.6625 C   0  0  0  0  0  0  0  0  0  0  0  0
   14.7425   10.0739   19.0802 O   0  0  0  0  0  0  0  0  0  0  0  0
    5.1894    9.4673   20.7118 C   0  0  0  0  0  0  0  0  0  0  0  0
    7.3773    8.8224   21.4870 C   0  0  0  0  0  0  0  0  0  0  0  0
    8.4391    6.6439   21.0235 C   0  0  0  0  0  0  0  0  0  0  0  0
    9.6494   11.1353   20.4167 C   0  0  0  0  0  0  0  0  0  0  0  0
    8.1431    7.6829   21.9046 C   0  0  0  0  0  0  0  0  0  0  0  0
    7.7796   10.1314   21.5115 N   0  0  0  0  0  0  0  0  0  0  0  0
    9.2768    5.6183   21.4437 C   0  0  0  0  0  0  0  0  0  0  0  0
    8.6315    7.7322   23.1768 C   0  0  0  0  0  0  0  0  0  0  0  0
   13.0537    9.9821   20.5781 C   0  0  0  0  0  0  0  0  0  0  0  0
   10.3850    4.6575   23.2386 O   0  0  0  0  0  0  0  0  0  0  0  0
    4.2069    6.8450   20.7994 C   0  0  0  0  0  0  0  0  0  0  0  0
    3.0726   10.1043   19.8522 O   0  0  0  0  0  0  0  0  0  0  0  0
    5.5057    7.1196   21.1155 C   0  0  0  0  0  0  0  0  0  0  0  0
    7.0367   11.0229   21.9948 O   0  0  0  0  0  0  0  0  0  0  0  0
  1  8  4  0
  1 12  4  0
  2  9  1  0
  2 11  4  0
  2 25  4  0
  3 12  4  0
  3 14  1  0
  3 23  4  0
  4 13  4  0
  4 21  4  0
  4 24  1  0
  5  8  4  0
  5 23  4  0
  6 18  2  0
  7 15  4  0
  7 16  1  0
  7 27  4  0
  8 18  1  0
 10 18  1  0
 10 20  1  0
 11 15  4  0
 11 26  1  0
 13 22  4  0
 16 19  1  0
 16 20  2  0
 17 19  4  0
 17 21  4  0
 19 22  4  0
 20 28  1  0
 25 27  4  0
M  END
$$$$

 Created by Python create_sdf_string function

 28 30  0  0  0  0  0  0  0  0999 V2000
   11.4592   11.2893   18.7941 C   0  0  0  0  0  0  0  0  0  0  0  0
    3.4202    7.9009   20.3866 C   0  0  0  0  0  0  0  0  0  0  0  0
   13.5280   10.3522   19.3586 C   0  0  0  0  0  0  0  0  0  0  0  0
    9.6923    5.6468   22.7891 C   0  0  0  0  0  0  0  0  0  0  0  0
   11.7756   10.2554   20.8841 N   0  0  0  0  0  0  0  0  0  0  0  0
    8.9876   11.9370   19.8757 O   0  0  0  0  0  0  0  0  0  0  0  0
    6.0167    8.4478   21.1089 C   0  0  0  0  0  0  0  0  0  0  0  0
   11.0002   10.8890   20.0262 C   0  0  0  0  0  0  0  0  0  0  0  0
    2.1721    7.7393   20.0315 O   0  0  0  0  0  0  0  0  0  0  0  0
    9.1107   10.3880   21.3769 N   0  0  0  0  0  0  0  0  0  0  0  0
    3.9102    9.2008   20.3124 C   0  0  0  0  0  0  0  0  0  0  0  0
   12.7292   10.9960   18.4597 C   0  0  0  0  0  0  0  0  0  0  0  0
    9.3798    6.6793   23.6625 C   0  0  0  0  0  0  0  0  0  0  0  0
   14.7425   10.0739   19.0802 O   0  0  0  0  0  0  0  0  0  0  0  0
    5.1894    9.4673   20.7118 C   0  0  0  0  0  0  0  0  0  0  0  0
    7.3773    8.8224   21.4870 C   0  0  0  0  0  0  0  0  0  0  0  0
    8.4391    6.6439   21.0235 C   0  0  0  0  0  0  0  0  0  0  0  0
    9.6494   11.1353   20.4167 C   0  0  0  0  0  0  0  0  0  0  0  0
    8.1431    7.6829   21.9046 C   0  0  0  0  0  0  0  0  0  0  0  0
    7.7796   10.1314   21.5115 N   0  0  0  0  0  0  0  0  0  0  0  0
    9.2768    5.6183   21.4437 C   0  0  0  0  0  0  0  0  0  0  0  0
    8.6315    7.7322   23.1768 C   0  0  0  0  0  0  0  0  0  0  0  0
   13.0537    9.9821   20.5781 C   0  0  0  0  0  0  0  0  0  0  0  0
   10.3850    4.6575   23.2386 O   0  0  0  0  0  0  0  0  0  0  0  0
    4.2069    6.8450   20.7994 C   0  0  0  0  0  0  0  0  0  0  0  0
    3.0726   10.1043   19.8522 O   0  0  0  0  0  0  0  0  0  0  0  0
    5.5057    7.1196   21.1155 C   0  0  0  0  0  0  0  0  0  0  0  0
    7.0367   11.0229   21.9948 O   0  0  0  0  0  0  0  0  0  0  0  0
  1  8  4  0
  1 12  4  0
  2  9  1  0
  2 11  4  0
  2 25  4  0
  3 12  4  0
  3 14  1  0
  3 23  4  0
  4 13  4  0
  4 21  4  0
  4 24  1  0
  5  8  4  0
  5 23  4  0
  6 18  2  0
  7 15  4  0
  7 16  1  0
  7 27  4  0
  8 18  1  0
 10 18  1  0
 10 20  1  0
 11 15  4  0
 11 26  1  0
 13 22  4  0
 16 19  1  0
 16 20  2  0
 17 19  4  0
 17 21  4  0
 19 22  4  0
 20 28  1  0
 25 27  4  0
M  END
$$$$

 Created by Python create_sdf_string function

 28 30  0  0  0  0  0  0  0  0999 V2000
   11.4592   11.2893   18.7941 C   0  0  0  0  0  0  0  0  0  0  0  0
    3.4202    7.9009   20.3866 C   0  0  0  0  0  0  0  0  0  0  0  0
   13.5280   10.3522   19.3586 C   0  0  0  0  0  0  0  0  0  0  0  0
    9.6923    5.6468   22.7891 C   0  0  0  0  0  0  0  0  0  0  0  0
   11.7756   10.2554   20.8841 N   0  0  0  0  0  0  0  0  0  0  0  0
    8.9876   11.9370   19.8757 O   0  0  0  0  0  0  0  0  0  0  0  0
    6.0167    8.4478   21.1089 C   0  0  0  0  0  0  0  0  0  0  0  0
   11.0002   10.8890   20.0262 C   0  0  0  0  0  0  0  0  0  0  0  0
    2.1721    7.7393   20.0315 O   0  0  0  0  0  0  0  0  0  0  0  0
    9.1107   10.3880   21.3769 N   0  0  0  0  0  0  0  0  0  0  0  0
    3.9102    9.2008   20.3124 C   0  0  0  0  0  0  0  0  0  0  0  0
   12.7292   10.9960   18.4597 C   0  0  0  0  0  0  0  0  0  0  0  0
    9.3798    6.6793   23.6625 C   0  0  0  0  0  0  0  0  0  0  0  0
   14.7425   10.0739   19.0802 O   0  0  0  0  0  0  0  0  0  0  0  0
    5.1894    9.4673   20.7118 C   0  0  0  0  0  0  0  0  0  0  0  0
    7.3773    8.8224   21.4870 C   0  0  0  0  0  0  0  0  0  0  0  0
    8.4391    6.6439   21.0235 C   0  0  0  0  0  0  0  0  0  0  0  0
    9.6494   11.1353   20.4167 C   0  0  0  0  0  0  0  0  0  0  0  0
    8.1431    7.6829   21.9046 C   0  0  0  0  0  0  0  0  0  0  0  0
    7.7796   10.1314   21.5115 N   0  0  0  0  0  0  0  0  0  0  0  0
    9.2768    5.6183   21.4437 C   0  0  0  0  0  0  0  0  0  0  0  0
    8.6315    7.7322   23.1768 C   0  0  0  0  0  0  0  0  0  0  0  0
   13.0537    9.9821   20.5781 C   0  0  0  0  0  0  0  0  0  0  0  0
   10.3850    4.6575   23.2386 O   0  0  0  0  0  0  0  0  0  0  0  0
    4.2069    6.8450   20.7994 C   0  0  0  0  0  0  0  0  0  0  0  0
    3.0726   10.1043   19.8522 O   0  0  0  0  0  0  0  0  0  0  0  0
    5.5057    7.1196   21.1155 C   0  0  0  0  0  0  0  0  0  0  0  0
    7.0367   11.0229   21.9948 O   0  0  0  0  0  0  0  0  0  0  0  0
  1  8  4  0
  1 12  4  0
  2  9  1  0
  2 11  4  0
  2 25  4  0
  3 12  4  0
  3 14  1  0
  3 23  4  0
  4 13  4  0
  4 21  4  0
  4 24  1  0
  5  8  4  0
  5 23  4  0
  6 18  2  0
  7 15  4  0
  7 16  1  0
  7 27  4  0
  8 18  1  0
 10 18  1  0
 10 20  1  0
 11 15  4  0
 11 26  1  0
 13 22  4  0
 16 19  1  0
 16 20  2  0
 17 19  4  0
 17 21  4  0
 19 22  4  0
 20 28  1  0
 25 27  4  0
M  END
$$$$

 Created by Python create_sdf_string function

 28 30  0  0  0  0  0  0  0  0999 V2000
   11.4592   11.2893   18.7941 C   0  0  0  0  0  0  0  0  0  0  0  0
    3.4202    7.9009   20.3866 C   0  0  0  0  0  0  0  0  0  0  0  0
   13.5280   10.3522   19.3586 C   0  0  0  0  0  0  0  0  0  0  0  0
    9.6923    5.6468   22.7891 C   0  0  0  0  0  0  0  0  0  0  0  0
   11.7756   10.2554   20.8841 N   0  0  0  0  0  0  0  0  0  0  0  0
    8.9876   11.9370   19.8757 O   0  0  0  0  0  0  0  0  0  0  0  0
    6.0167    8.4478   21.1089 C   0  0  0  0  0  0  0  0  0  0  0  0
   11.0002   10.8890   20.0262 C   0  0  0  0  0  0  0  0  0  0  0  0
    2.1721    7.7393   20.0315 O   0  0  0  0  0  0  0  0  0  0  0  0
    9.1107   10.3880   21.3769 N   0  0  0  0  0  0  0  0  0  0  0  0
    3.9102    9.2008   20.3124 C   0  0  0  0  0  0  0  0  0  0  0  0
   12.7292   10.9960   18.4597 C   0  0  0  0  0  0  0  0  0  0  0  0
    9.3798    6.6793   23.6625 C   0  0  0  0  0  0  0  0  0  0  0  0
   14.7425   10.0739   19.0802 O   0  0  0  0  0  0  0  0  0  0  0  0
    5.1894    9.4673   20.7118 C   0  0  0  0  0  0  0  0  0  0  0  0
    7.3773    8.8224   21.4870 C   0  0  0  0  0  0  0  0  0  0  0  0
    8.4391    6.6439   21.0235 C   0  0  0  0  0  0  0  0  0  0  0  0
    9.6494   11.1353   20.4167 C   0  0  0  0  0  0  0  0  0  0  0  0
    8.1431    7.6829   21.9046 C   0  0  0  0  0  0  0  0  0  0  0  0
    7.7796   10.1314   21.5115 N   0  0  0  0  0  0  0  0  0  0  0  0
    9.2768    5.6183   21.4437 C   0  0  0  0  0  0  0  0  0  0  0  0
    8.6315    7.7322   23.1768 C   0  0  0  0  0  0  0  0  0  0  0  0
   13.0537    9.9821   20.5781 C   0  0  0  0  0  0  0  0  0  0  0  0
   10.3850    4.6575   23.2386 O   0  0  0  0  0  0  0  0  0  0  0  0
    4.2069    6.8450   20.7994 C   0  0  0  0  0  0  0  0  0  0  0  0
    3.0726   10.1043   19.8522 O   0  0  0  0  0  0  0  0  0  0  0  0
    5.5057    7.1196   21.1155 C   0  0  0  0  0  0  0  0  0  0  0  0
    7.0367   11.0229   21.9948 O   0  0  0  0  0  0  0  0  0  0  0  0
  1  8  4  0
  1 12  4  0
  2  9  1  0
  2 11  4  0
  2 25  4  0
  3 12  4  0
  3 14  1  0
  3 23  4  0
  4 13  4  0
  4 21  4  0
  4 24  1  0
  5  8  4  0
  5 23  4  0
  6 18  2  0
  7 15  4  0
  7 16  1  0
  7 27  4  0
  8 18  1  0
 10 18  1  0
 10 20  1  0
 11 15  4  0
 11 26  1  0
 13 22  4  0
 16 19  1  0
 16 20  2  0
 17 19  4  0
 17 21  4  0
 19 22  4  0
 20 28  1  0
 25 27  4  0
M  END
$$$$

 Created by Python create_sdf_string function

 28 30  0  0  0  0  0  0  0  0999 V2000
   11.4592   11.2893   18.7941 C   0  0  0  0  0  0  0  0  0  0  0  0
    3.4202    7.9009   20.3866 C   0  0  0  0  0  0  0  0  0  0  0  0
   13.5280   10.3522   19.3586 C   0  0  0  0  0  0  0  0  0  0  0  0
    9.6923    5.6468   22.7891 C   0  0  0  0  0  0  0  0  0  0  0  0
   11.7756   10.2554   20.8841 N   0  0  0  0  0  0  0  0  0  0  0  0
    8.9876   11.9370   19.8757 O   0  0  0  0  0  0  0  0  0  0  0  0
    6.0167    8.4478   21.1089 C   0  0  0  0  0  0  0  0  0  0  0  0
   11.0002   10.8890   20.0262 C   0  0  0  0  0  0  0  0  0  0  0  0
    2.1721    7.7393   20.0315 O   0  0  0  0  0  0  0  0  0  0  0  0
    9.1107   10.3880   21.3769 N   0  0  0  0  0  0  0  0  0  0  0  0
    3.9102    9.2008   20.3124 C   0  0  0  0  0  0  0  0  0  0  0  0
   12.7292   10.9960   18.4597 C   0  0  0  0  0  0  0  0  0  0  0  0
    9.3798    6.6793   23.6625 C   0  0  0  0  0  0  0  0  0  0  0  0
   14.7425   10.0739   19.0802 O   0  0  0  0  0  0  0  0  0  0  0  0
    5.1894    9.4673   20.7118 C   0  0  0  0  0  0  0  0  0  0  0  0
    7.3773    8.8224   21.4870 C   0  0  0  0  0  0  0  0  0  0  0  0
    8.4391    6.6439   21.0235 C   0  0  0  0  0  0  0  0  0  0  0  0
    9.6494   11.1353   20.4167 C   0  0  0  0  0  0  0  0  0  0  0  0
    8.1431    7.6829   21.9046 C   0  0  0  0  0  0  0  0  0  0  0  0
    7.7796   10.1314   21.5115 N   0  0  0  0  0  0  0  0  0  0  0  0
    9.2768    5.6183   21.4437 C   0  0  0  0  0  0  0  0  0  0  0  0
    8.6315    7.7322   23.1768 C   0  0  0  0  0  0  0  0  0  0  0  0
   13.0537    9.9821   20.5781 C   0  0  0  0  0  0  0  0  0  0  0  0
   10.3850    4.6575   23.2386 O   0  0  0  0  0  0  0  0  0  0  0  0
    4.2069    6.8450   20.7994 C   0  0  0  0  0  0  0  0  0  0  0  0
    3.0726   10.1043   19.8522 O   0  0  0  0  0  0  0  0  0  0  0  0
    5.5057    7.1196   21.1155 C   0  0  0  0  0  0  0  0  0  0  0  0
    7.0367   11.0229   21.9948 O   0  0  0  0  0  0  0  0  0  0  0  0
  1  8  4  0
  1 12  4  0
  2  9  1  0
  2 11  4  0
  2 25  4  0
  3 12  4  0
  3 14  1  0
  3 23  4  0
  4 13  4  0
  4 21  4  0
  4 24  1  0
  5  8  4  0
  5 23  4  0
  6 18  2  0
  7 15  4  0
  7 16  1  0
  7 27  4  0
  8 18  1  0
 10 18  1  0
 10 20  1  0
 11 15  4  0
 11 26  1  0
 13 22  4  0
 16 19  1  0
 16 20  2  0
 17 19  4  0
 17 21  4  0
 19 22  4  0
 20 28  1  0
 25 27  4  0
M  END
$$$$

 Created by Python create_sdf_string function

 28 30  0  0  0  0  0  0  0  0999 V2000
   11.4592   11.2893   18.7941 C   0  0  0  0  0  0  0  0  0  0  0  0
    3.4202    7.9009   20.3866 C   0  0  0  0  0  0  0  0  0  0  0  0
   13.5280   10.3522   19.3586 C   0  0  0  0  0  0  0  0  0  0  0  0
    9.6923    5.6468   22.7891 C   0  0  0  0  0  0  0  0  0  0  0  0
   11.7756   10.2554   20.8841 N   0  0  0  0  0  0  0  0  0  0  0  0
    8.9876   11.9370   19.8757 O   0  0  0  0  0  0  0  0  0  0  0  0
    6.0167    8.4478   21.1089 C   0  0  0  0  0  0  0  0  0  0  0  0
   11.0002   10.8890   20.0262 C   0  0  0  0  0  0  0  0  0  0  0  0
    2.1721    7.7393   20.0315 O   0  0  0  0  0  0  0  0  0  0  0  0
    9.1107   10.3880   21.3769 N   0  0  0  0  0  0  0  0  0  0  0  0
    3.9102    9.2008   20.3124 C   0  0  0  0  0  0  0  0  0  0  0  0
   12.7292   10.9960   18.4597 C   0  0  0  0  0  0  0  0  0  0  0  0
    9.3798    6.6793   23.6625 C   0  0  0  0  0  0  0  0  0  0  0  0
   14.7425   10.0739   19.0802 O   0  0  0  0  0  0  0  0  0  0  0  0
    5.1894    9.4673   20.7118 C   0  0  0  0  0  0  0  0  0  0  0  0
    7.3773    8.8224   21.4870 C   0  0  0  0  0  0  0  0  0  0  0  0
    8.4391    6.6439   21.0235 C   0  0  0  0  0  0  0  0  0  0  0  0
    9.6494   11.1353   20.4167 C   0  0  0  0  0  0  0  0  0  0  0  0
    8.1431    7.6829   21.9046 C   0  0  0  0  0  0  0  0  0  0  0  0
    7.7796   10.1314   21.5115 N   0  0  0  0  0  0  0  0  0  0  0  0
    9.2768    5.6183   21.4437 C   0  0  0  0  0  0  0  0  0  0  0  0
    8.6315    7.7322   23.1768 C   0  0  0  0  0  0  0  0  0  0  0  0
   13.0537    9.9821   20.5781 C   0  0  0  0  0  0  0  0  0  0  0  0
   10.3850    4.6575   23.2386 O   0  0  0  0  0  0  0  0  0  0  0  0
    4.2069    6.8450   20.7994 C   0  0  0  0  0  0  0  0  0  0  0  0
    3.0726   10.1043   19.8522 O   0  0  0  0  0  0  0  0  0  0  0  0
    5.5057    7.1196   21.1155 C   0  0  0  0  0  0  0  0  0  0  0  0
    7.0367   11.0229   21.9948 O   0  0  0  0  0  0  0  0  0  0  0  0
  1  8  4  0
  1 12  4  0
  2  9  1  0
  2 11  4  0
  2 25  4  0
  3 12  4  0
  3 14  1  0
  3 23  4  0
  4 13  4  0
  4 21  4  0
  4 24  1  0
  5  8  4  0
  5 23  4  0
  6 18  2  0
  7 15  4  0
  7 16  1  0
  7 27  4  0
  8 18  1  0
 10 18  1  0
 10 20  1  0
 11 15  4  0
 11 26  1  0
 13 22  4  0
 16 19  1  0
 16 20  2  0
 17 19  4  0
 17 21  4  0
 19 22  4  0
 20 28  1  0
 25 27  4  0
M  END
$$$$

 Created by Python create_sdf_string function

 28 30  0  0  0  0  0  0  0  0999 V2000
   11.4592   11.2893   18.7941 C   0  0  0  0  0  0  0  0  0  0  0  0
    3.4202    7.9009   20.3866 C   0  0  0  0  0  0  0  0  0  0  0  0
   13.5280   10.3522   19.3586 C   0  0  0  0  0  0  0  0  0  0  0  0
    9.6923    5.6468   22.7891 C   0  0  0  0  0  0  0  0  0  0  0  0
   11.7756   10.2554   20.8841 N   0  0  0  0  0  0  0  0  0  0  0  0
    8.9876   11.9370   19.8757 O   0  0  0  0  0  0  0  0  0  0  0  0
    6.0167    8.4478   21.1089 C   0  0  0  0  0  0  0  0  0  0  0  0
   11.0002   10.8890   20.0262 C   0  0  0  0  0  0  0  0  0  0  0  0
    2.1721    7.7393   20.0315 O   0  0  0  0  0  0  0  0  0  0  0  0
    9.1107   10.3880   21.3769 N   0  0  0  0  0  0  0  0  0  0  0  0
    3.9102    9.2008   20.3124 C   0  0  0  0  0  0  0  0  0  0  0  0
   12.7292   10.9960   18.4597 C   0  0  0  0  0  0  0  0  0  0  0  0
    9.3798    6.6793   23.6625 C   0  0  0  0  0  0  0  0  0  0  0  0
   14.7425   10.0739   19.0802 O   0  0  0  0  0  0  0  0  0  0  0  0
    5.1894    9.4673   20.7118 C   0  0  0  0  0  0  0  0  0  0  0  0
    7.3773    8.8224   21.4870 C   0  0  0  0  0  0  0  0  0  0  0  0
    8.4391    6.6439   21.0235 C   0  0  0  0  0  0  0  0  0  0  0  0
    9.6494   11.1353   20.4167 C   0  0  0  0  0  0  0  0  0  0  0  0
    8.1431    7.6829   21.9046 C   0  0  0  0  0  0  0  0  0  0  0  0
    7.7796   10.1314   21.5115 N   0  0  0  0  0  0  0  0  0  0  0  0
    9.2768    5.6183   21.4437 C   0  0  0  0  0  0  0  0  0  0  0  0
    8.6315    7.7322   23.1768 C   0  0  0  0  0  0  0  0  0  0  0  0
   13.0537    9.9821   20.5781 C   0  0  0  0  0  0  0  0  0  0  0  0
   10.3850    4.6575   23.2386 O   0  0  0  0  0  0  0  0  0  0  0  0
    4.2069    6.8450   20.7994 C   0  0  0  0  0  0  0  0  0  0  0  0
    3.0726   10.1043   19.8522 O   0  0  0  0  0  0  0  0  0  0  0  0
    5.5057    7.1196   21.1155 C   0  0  0  0  0  0  0  0  0  0  0  0
    7.0367   11.0229   21.9948 O   0  0  0  0  0  0  0  0  0  0  0  0
  1  8  4  0
  1 12  4  0
  2  9  1  0
  2 11  4  0
  2 25  4  0
  3 12  4  0
  3 14  1  0
  3 23  4  0
  4 13  4  0
  4 21  4  0
  4 24  1  0
  5  8  4  0
  5 23  4  0
  6 18  2  0
  7 15  4  0
  7 16  1  0
  7 27  4  0
  8 18  1  0
 10 18  1  0
 10 20  1  0
 11 15  4  0
 11 26  1  0
 13 22  4  0
 16 19  1  0
 16 20  2  0
 17 19  4  0
 17 21  4  0
 19 22  4  0
 20 28  1  0
 25 27  4  0
M  END
$$$$

 Created by Python create_sdf_string function

 28 30  0  0  0  0  0  0  0  0999 V2000
   11.4592   11.2893   18.7941 C   0  0  0  0  0  0  0  0  0  0  0  0
    3.4202    7.9009   20.3866 C   0  0  0  0  0  0  0  0  0  0  0  0
   13.5280   10.3522   19.3586 C   0  0  0  0  0  0  0  0  0  0  0  0
    9.6923    5.6468   22.7891 C   0  0  0  0  0  0  0  0  0  0  0  0
   11.7756   10.2554   20.8841 N   0  0  0  0  0  0  0  0  0  0  0  0
    8.9876   11.9370   19.8757 O   0  0  0  0  0  0  0  0  0  0  0  0
    6.0167    8.4478   21.1089 C   0  0  0  0  0  0  0  0  0  0  0  0
   11.0002   10.8890   20.0262 C   0  0  0  0  0  0  0  0  0  0  0  0
    2.1721    7.7393   20.0315 O   0  0  0  0  0  0  0  0  0  0  0  0
    9.1107   10.3880   21.3769 N   0  0  0  0  0  0  0  0  0  0  0  0
    3.9102    9.2008   20.3124 C   0  0  0  0  0  0  0  0  0  0  0  0
   12.7292   10.9960   18.4597 C   0  0  0  0  0  0  0  0  0  0  0  0
    9.3798    6.6793   23.6625 C   0  0  0  0  0  0  0  0  0  0  0  0
   14.7425   10.0739   19.0802 O   0  0  0  0  0  0  0  0  0  0  0  0
    5.1894    9.4673   20.7118 C   0  0  0  0  0  0  0  0  0  0  0  0
    7.3773    8.8224   21.4870 C   0  0  0  0  0  0  0  0  0  0  0  0
    8.4391    6.6439   21.0235 C   0  0  0  0  0  0  0  0  0  0  0  0
    9.6494   11.1353   20.4167 C   0  0  0  0  0  0  0  0  0  0  0  0
    8.1431    7.6829   21.9046 C   0  0  0  0  0  0  0  0  0  0  0  0
    7.7796   10.1314   21.5115 N   0  0  0  0  0  0  0  0  0  0  0  0
    9.2768    5.6183   21.4437 C   0  0  0  0  0  0  0  0  0  0  0  0
    8.6315    7.7322   23.1768 C   0  0  0  0  0  0  0  0  0  0  0  0
   13.0537    9.9821   20.5781 C   0  0  0  0  0  0  0  0  0  0  0  0
   10.3850    4.6575   23.2386 O   0  0  0  0  0  0  0  0  0  0  0  0
    4.2069    6.8450   20.7994 C   0  0  0  0  0  0  0  0  0  0  0  0
    3.0726   10.1043   19.8522 O   0  0  0  0  0  0  0  0  0  0  0  0
    5.5057    7.1196   21.1155 C   0  0  0  0  0  0  0  0  0  0  0  0
    7.0367   11.0229   21.9948 O   0  0  0  0  0  0  0  0  0  0  0  0
  1  8  4  0
  1 12  4  0
  2  9  1  0
  2 11  4  0
  2 25  4  0
  3 12  4  0
  3 14  1  0
  3 23  4  0
  4 13  4  0
  4 21  4  0
  4 24  1  0
  5  8  4  0
  5 23  4  0
  6 18  2  0
  7 15  4  0
  7 16  1  0
  7 27  4  0
  8 18  1  0
 10 18  1  0
 10 20  1  0
 11 15  4  0
 11 26  1  0
 13 22  4  0
 16 19  1  0
 16 20  2  0
 17 19  4  0
 17 21  4  0
 19 22  4  0
 20 28  1  0
 25 27  4  0
M  END
$$$$

 Created by Python create_sdf_string function

 28 30  0  0  0  0  0  0  0  0999 V2000
   11.4592   11.2893   18.7941 C   0  0  0  0  0  0  0  0  0  0  0  0
    3.4202    7.9009   20.3866 C   0  0  0  0  0  0  0  0  0  0  0  0
   13.5280   10.3522   19.3586 C   0  0  0  0  0  0  0  0  0  0  0  0
    9.6923    5.6468   22.7891 C   0  0  0  0  0  0  0  0  0  0  0  0
   11.7756   10.2554   20.8841 N   0  0  0  0  0  0  0  0  0  0  0  0
    8.9876   11.9370   19.8757 O   0  0  0  0  0  0  0  0  0  0  0  0
    6.0167    8.4478   21.1089 C   0  0  0  0  0  0  0  0  0  0  0  0
   11.0002   10.8890   20.0262 C   0  0  0  0  0  0  0  0  0  0  0  0
    2.1721    7.7393   20.0315 O   0  0  0  0  0  0  0  0  0  0  0  0
    9.1107   10.3880   21.3769 N   0  0  0  0  0  0  0  0  0  0  0  0
    3.9102    9.2008   20.3124 C   0  0  0  0  0  0  0  0  0  0  0  0
   12.7292   10.9960   18.4597 C   0  0  0  0  0  0  0  0  0  0  0  0
    9.3798    6.6793   23.6625 C   0  0  0  0  0  0  0  0  0  0  0  0
   14.7425   10.0739   19.0802 O   0  0  0  0  0  0  0  0  0  0  0  0
    5.1894    9.4673   20.7118 C   0  0  0  0  0  0  0  0  0  0  0  0
    7.3773    8.8224   21.4870 C   0  0  0  0  0  0  0  0  0  0  0  0
    8.4391    6.6439   21.0235 C   0  0  0  0  0  0  0  0  0  0  0  0
    9.6494   11.1353   20.4167 C   0  0  0  0  0  0  0  0  0  0  0  0
    8.1431    7.6829   21.9046 C   0  0  0  0  0  0  0  0  0  0  0  0
    7.7796   10.1314   21.5115 N   0  0  0  0  0  0  0  0  0  0  0  0
    9.2768    5.6183   21.4437 C   0  0  0  0  0  0  0  0  0  0  0  0
    8.6315    7.7322   23.1768 C   0  0  0  0  0  0  0  0  0  0  0  0
   13.0537    9.9821   20.5781 C   0  0  0  0  0  0  0  0  0  0  0  0
   10.3850    4.6575   23.2386 O   0  0  0  0  0  0  0  0  0  0  0  0
    4.2069    6.8450   20.7994 C   0  0  0  0  0  0  0  0  0  0  0  0
    3.0726   10.1043   19.8522 O   0  0  0  0  0  0  0  0  0  0  0  0
    5.5057    7.1196   21.1155 C   0  0  0  0  0  0  0  0  0  0  0  0
    7.0367   11.0229   21.9948 O   0  0  0  0  0  0  0  0  0  0  0  0
  1  8  4  0
  1 12  4  0
  2  9  1  0
  2 11  4  0
  2 25  4  0
  3 12  4  0
  3 14  1  0
  3 23  4  0
  4 13  4  0
  4 21  4  0
  4 24  1  0
  5  8  4  0
  5 23  4  0
  6 18  2  0
  7 15  4  0
  7 16  1  0
  7 27  4  0
  8 18  1  0
 10 18  1  0
 10 20  1  0
 11 15  4  0
 11 26  1  0
 13 22  4  0
 16 19  1  0
 16 20  2  0
 17 19  4  0
 17 21  4  0
 19 22  4  0
 20 28  1  0
 25 27  4  0
M  END
$$$$

 Created by Python create_sdf_string function

 28 30  0  0  0  0  0  0  0  0999 V2000
   11.4592   11.2893   18.7941 C   0  0  0  0  0  0  0  0  0  0  0  0
    3.4202    7.9009   20.3866 C   0  0  0  0  0  0  0  0  0  0  0  0
   13.5280   10.3522   19.3586 C   0  0  0  0  0  0  0  0  0  0  0  0
    9.6923    5.6468   22.7891 C   0  0  0  0  0  0  0  0  0  0  0  0
   11.7756   10.2554   20.8841 N   0  0  0  0  0  0  0  0  0  0  0  0
    8.9876   11.9370   19.8757 O   0  0  0  0  0  0  0  0  0  0  0  0
    6.0167    8.4478   21.1089 C   0  0  0  0  0  0  0  0  0  0  0  0
   11.0002   10.8890   20.0262 C   0  0  0  0  0  0  0  0  0  0  0  0
    2.1721    7.7393   20.0315 O   0  0  0  0  0  0  0  0  0  0  0  0
    9.1107   10.3880   21.3769 N   0  0  0  0  0  0  0  0  0  0  0  0
    3.9102    9.2008   20.3124 C   0  0  0  0  0  0  0  0  0  0  0  0
   12.7292   10.9960   18.4597 C   0  0  0  0  0  0  0  0  0  0  0  0
    9.3798    6.6793   23.6625 C   0  0  0  0  0  0  0  0  0  0  0  0
   14.7425   10.0739   19.0802 O   0  0  0  0  0  0  0  0  0  0  0  0
    5.1894    9.4673   20.7118 C   0  0  0  0  0  0  0  0  0  0  0  0
    7.3773    8.8224   21.4870 C   0  0  0  0  0  0  0  0  0  0  0  0
    8.4391    6.6439   21.0235 C   0  0  0  0  0  0  0  0  0  0  0  0
    9.6494   11.1353   20.4167 C   0  0  0  0  0  0  0  0  0  0  0  0
    8.1431    7.6829   21.9046 C   0  0  0  0  0  0  0  0  0  0  0  0
    7.7796   10.1314   21.5115 N   0  0  0  0  0  0  0  0  0  0  0  0
    9.2768    5.6183   21.4437 C   0  0  0  0  0  0  0  0  0  0  0  0
    8.6315    7.7322   23.1768 C   0  0  0  0  0  0  0  0  0  0  0  0
   13.0537    9.9821   20.5781 C   0  0  0  0  0  0  0  0  0  0  0  0
   10.3850    4.6575   23.2386 O   0  0  0  0  0  0  0  0  0  0  0  0
    4.2069    6.8450   20.7994 C   0  0  0  0  0  0  0  0  0  0  0  0
    3.0726   10.1043   19.8522 O   0  0  0  0  0  0  0  0  0  0  0  0
    5.5057    7.1196   21.1155 C   0  0  0  0  0  0  0  0  0  0  0  0
    7.0367   11.0229   21.9948 O   0  0  0  0  0  0  0  0  0  0  0  0
  1  8  4  0
  1 12  4  0
  2  9  1  0
  2 11  4  0
  2 25  4  0
  3 12  4  0
  3 14  1  0
  3 23  4  0
  4 13  4  0
  4 21  4  0
  4 24  1  0
  5  8  4  0
  5 23  4  0
  6 18  2  0
  7 15  4  0
  7 16  1  0
  7 27  4  0
  8 18  1  0
 10 18  1  0
 10 20  1  0
 11 15  4  0
 11 26  1  0
 13 22  4  0
 16 19  1  0
 16 20  2  0
 17 19  4  0
 17 21  4  0
 19 22  4  0
 20 28  1  0
 25 27  4  0
M  END
$$$$

 Created by Python create_sdf_string function

 28 30  0  0  0  0  0  0  0  0999 V2000
   11.4592   11.2893   18.7941 C   0  0  0  0  0  0  0  0  0  0  0  0
    3.4202    7.9009   20.3866 C   0  0  0  0  0  0  0  0  0  0  0  0
   13.5280   10.3522   19.3586 C   0  0  0  0  0  0  0  0  0  0  0  0
    9.6923    5.6468   22.7891 C   0  0  0  0  0  0  0  0  0  0  0  0
   11.7756   10.2554   20.8841 N   0  0  0  0  0  0  0  0  0  0  0  0
    8.9876   11.9370   19.8757 O   0  0  0  0  0  0  0  0  0  0  0  0
    6.0167    8.4478   21.1089 C   0  0  0  0  0  0  0  0  0  0  0  0
   11.0002   10.8890   20.0262 C   0  0  0  0  0  0  0  0  0  0  0  0
    2.1721    7.7393   20.0315 O   0  0  0  0  0  0  0  0  0  0  0  0
    9.1107   10.3880   21.3769 N   0  0  0  0  0  0  0  0  0  0  0  0
    3.9102    9.2008   20.3124 C   0  0  0  0  0  0  0  0  0  0  0  0
   12.7292   10.9960   18.4597 C   0  0  0  0  0  0  0  0  0  0  0  0
    9.3798    6.6793   23.6625 C   0  0  0  0  0  0  0  0  0  0  0  0
   14.7425   10.0739   19.0802 O   0  0  0  0  0  0  0  0  0  0  0  0
    5.1894    9.4673   20.7118 C   0  0  0  0  0  0  0  0  0  0  0  0
    7.3773    8.8224   21.4870 C   0  0  0  0  0  0  0  0  0  0  0  0
    8.4391    6.6439   21.0235 C   0  0  0  0  0  0  0  0  0  0  0  0
    9.6494   11.1353   20.4167 C   0  0  0  0  0  0  0  0  0  0  0  0
    8.1431    7.6829   21.9046 C   0  0  0  0  0  0  0  0  0  0  0  0
    7.7796   10.1314   21.5115 N   0  0  0  0  0  0  0  0  0  0  0  0
    9.2768    5.6183   21.4437 C   0  0  0  0  0  0  0  0  0  0  0  0
    8.6315    7.7322   23.1768 C   0  0  0  0  0  0  0  0  0  0  0  0
   13.0537    9.9821   20.5781 C   0  0  0  0  0  0  0  0  0  0  0  0
   10.3850    4.6575   23.2386 O   0  0  0  0  0  0  0  0  0  0  0  0
    4.2069    6.8450   20.7994 C   0  0  0  0  0  0  0  0  0  0  0  0
    3.0726   10.1043   19.8522 O   0  0  0  0  0  0  0  0  0  0  0  0
    5.5057    7.1196   21.1155 C   0  0  0  0  0  0  0  0  0  0  0  0
    7.0367   11.0229   21.9948 O   0  0  0  0  0  0  0  0  0  0  0  0
  1  8  4  0
  1 12  4  0
  2  9  1  0
  2 11  4  0
  2 25  4  0
  3 12  4  0
  3 14  1  0
  3 23  4  0
  4 13  4  0
  4 21  4  0
  4 24  1  0
  5  8  4  0
  5 23  4  0
  6 18  2  0
  7 15  4  0
  7 16  1  0
  7 27  4  0
  8 18  1  0
 10 18  1  0
 10 20  1  0
 11 15  4  0
 11 26  1  0
 13 22  4  0
 16 19  1  0
 16 20  2  0
 17 19  4  0
 17 21  4  0
 19 22  4  0
 20 28  1  0
 25 27  4  0
M  END
$$$$

 Created by Python create_sdf_string function

 28 30  0  0  0  0  0  0  0  0999 V2000
   11.4592   11.2893   18.7941 C   0  0  0  0  0  0  0  0  0  0  0  0
    3.4202    7.9009   20.3866 C   0  0  0  0  0  0  0  0  0  0  0  0
   13.5280   10.3522   19.3586 C   0  0  0  0  0  0  0  0  0  0  0  0
    9.6923    5.6468   22.7891 C   0  0  0  0  0  0  0  0  0  0  0  0
   11.7756   10.2554   20.8841 N   0  0  0  0  0  0  0  0  0  0  0  0
    8.9876   11.9370   19.8757 O   0  0  0  0  0  0  0  0  0  0  0  0
    6.0167    8.4478   21.1089 C   0  0  0  0  0  0  0  0  0  0  0  0
   11.0002   10.8890   20.0262 C   0  0  0  0  0  0  0  0  0  0  0  0
    2.1721    7.7393   20.0315 O   0  0  0  0  0  0  0  0  0  0  0  0
    9.1107   10.3880   21.3769 N   0  0  0  0  0  0  0  0  0  0  0  0
    3.9102    9.2008   20.3124 C   0  0  0  0  0  0  0  0  0  0  0  0
   12.7292   10.9960   18.4597 C   0  0  0  0  0  0  0  0  0  0  0  0
    9.3798    6.6793   23.6625 C   0  0  0  0  0  0  0  0  0  0  0  0
   14.7425   10.0739   19.0802 O   0  0  0  0  0  0  0  0  0  0  0  0
    5.1894    9.4673   20.7118 C   0  0  0  0  0  0  0  0  0  0  0  0
    7.3773    8.8224   21.4870 C   0  0  0  0  0  0  0  0  0  0  0  0
    8.4391    6.6439   21.0235 C   0  0  0  0  0  0  0  0  0  0  0  0
    9.6494   11.1353   20.4167 C   0  0  0  0  0  0  0  0  0  0  0  0
    8.1431    7.6829   21.9046 C   0  0  0  0  0  0  0  0  0  0  0  0
    7.7796   10.1314   21.5115 N   0  0  0  0  0  0  0  0  0  0  0  0
    9.2768    5.6183   21.4437 C   0  0  0  0  0  0  0  0  0  0  0  0
    8.6315    7.7322   23.1768 C   0  0  0  0  0  0  0  0  0  0  0  0
   13.0537    9.9821   20.5781 C   0  0  0  0  0  0  0  0  0  0  0  0
   10.3850    4.6575   23.2386 O   0  0  0  0  0  0  0  0  0  0  0  0
    4.2069    6.8450   20.7994 C   0  0  0  0  0  0  0  0  0  0  0  0
    3.0726   10.1043   19.8522 O   0  0  0  0  0  0  0  0  0  0  0  0
    5.5057    7.1196   21.1155 C   0  0  0  0  0  0  0  0  0  0  0  0
    7.0367   11.0229   21.9948 O   0  0  0  0  0  0  0  0  0  0  0  0
  1  8  4  0
  1 12  4  0
  2  9  1  0
  2 11  4  0
  2 25  4  0
  3 12  4  0
  3 14  1  0
  3 23  4  0
  4 13  4  0
  4 21  4  0
  4 24  1  0
  5  8  4  0
  5 23  4  0
  6 18  2  0
  7 15  4  0
  7 16  1  0
  7 27  4  0
  8 18  1  0
 10 18  1  0
 10 20  1  0
 11 15  4  0
 11 26  1  0
 13 22  4  0
 16 19  1  0
 16 20  2  0
 17 19  4  0
 17 21  4  0
 19 22  4  0
 20 28  1  0
 25 27  4  0
M  END
$$$$

 Created by Python create_sdf_string function

 28 30  0  0  0  0  0  0  0  0999 V2000
   11.4592   11.2893   18.7941 C   0  0  0  0  0  0  0  0  0  0  0  0
    3.4202    7.9009   20.3866 C   0  0  0  0  0  0  0  0  0  0  0  0
   13.5280   10.3522   19.3586 C   0  0  0  0  0  0  0  0  0  0  0  0
    9.6923    5.6468   22.7891 C   0  0  0  0  0  0  0  0  0  0  0  0
   11.7756   10.2554   20.8841 N   0  0  0  0  0  0  0  0  0  0  0  0
    8.9876   11.9370   19.8757 O   0  0  0  0  0  0  0  0  0  0  0  0
    6.0167    8.4478   21.1089 C   0  0  0  0  0  0  0  0  0  0  0  0
   11.0002   10.8890   20.0262 C   0  0  0  0  0  0  0  0  0  0  0  0
    2.1721    7.7393   20.0315 O   0  0  0  0  0  0  0  0  0  0  0  0
    9.1107   10.3880   21.3769 N   0  0  0  0  0  0  0  0  0  0  0  0
    3.9102    9.2008   20.3124 C   0  0  0  0  0  0  0  0  0  0  0  0
   12.7292   10.9960   18.4597 C   0  0  0  0  0  0  0  0  0  0  0  0
    9.3798    6.6793   23.6625 C   0  0  0  0  0  0  0  0  0  0  0  0
   14.7425   10.0739   19.0802 O   0  0  0  0  0  0  0  0  0  0  0  0
    5.1894    9.4673   20.7118 C   0  0  0  0  0  0  0  0  0  0  0  0
    7.3773    8.8224   21.4870 C   0  0  0  0  0  0  0  0  0  0  0  0
    8.4391    6.6439   21.0235 C   0  0  0  0  0  0  0  0  0  0  0  0
    9.6494   11.1353   20.4167 C   0  0  0  0  0  0  0  0  0  0  0  0
    8.1431    7.6829   21.9046 C   0  0  0  0  0  0  0  0  0  0  0  0
    7.7796   10.1314   21.5115 N   0  0  0  0  0  0  0  0  0  0  0  0
    9.2768    5.6183   21.4437 C   0  0  0  0  0  0  0  0  0  0  0  0
    8.6315    7.7322   23.1768 C   0  0  0  0  0  0  0  0  0  0  0  0
   13.0537    9.9821   20.5781 C   0  0  0  0  0  0  0  0  0  0  0  0
   10.3850    4.6575   23.2386 O   0  0  0  0  0  0  0  0  0  0  0  0
    4.2069    6.8450   20.7994 C   0  0  0  0  0  0  0  0  0  0  0  0
    3.0726   10.1043   19.8522 O   0  0  0  0  0  0  0  0  0  0  0  0
    5.5057    7.1196   21.1155 C   0  0  0  0  0  0  0  0  0  0  0  0
    7.0367   11.0229   21.9948 O   0  0  0  0  0  0  0  0  0  0  0  0
  1  8  4  0
  1 12  4  0
  2  9  1  0
  2 11  4  0
  2 25  4  0
  3 12  4  0
  3 14  1  0
  3 23  4  0
  4 13  4  0
  4 21  4  0
  4 24  1  0
  5  8  4  0
  5 23  4  0
  6 18  2  0
  7 15  4  0
  7 16  1  0
  7 27  4  0
  8 18  1  0
 10 18  1  0
 10 20  1  0
 11 15  4  0
 11 26  1  0
 13 22  4  0
 16 19  1  0
 16 20  2  0
 17 19  4  0
 17 21  4  0
 19 22  4  0
 20 28  1  0
 25 27  4  0
M  END
$$$$

 Created by Python create_sdf_string function

 28 30  0  0  0  0  0  0  0  0999 V2000
   11.4592   11.2893   18.7941 C   0  0  0  0  0  0  0  0  0  0  0  0
    3.4202    7.9009   20.3866 C   0  0  0  0  0  0  0  0  0  0  0  0
   13.5280   10.3522   19.3586 C   0  0  0  0  0  0  0  0  0  0  0  0
    9.6923    5.6468   22.7891 C   0  0  0  0  0  0  0  0  0  0  0  0
   11.7756   10.2554   20.8841 N   0  0  0  0  0  0  0  0  0  0  0  0
    8.9876   11.9370   19.8757 O   0  0  0  0  0  0  0  0  0  0  0  0
    6.0167    8.4478   21.1089 C   0  0  0  0  0  0  0  0  0  0  0  0
   11.0002   10.8890   20.0262 C   0  0  0  0  0  0  0  0  0  0  0  0
    2.1721    7.7393   20.0315 O   0  0  0  0  0  0  0  0  0  0  0  0
    9.1107   10.3880   21.3769 N   0  0  0  0  0  0  0  0  0  0  0  0
    3.9102    9.2008   20.3124 C   0  0  0  0  0  0  0  0  0  0  0  0
   12.7292   10.9960   18.4597 C   0  0  0  0  0  0  0  0  0  0  0  0
    9.3798    6.6793   23.6625 C   0  0  0  0  0  0  0  0  0  0  0  0
   14.7425   10.0739   19.0802 O   0  0  0  0  0  0  0  0  0  0  0  0
    5.1894    9.4673   20.7118 C   0  0  0  0  0  0  0  0  0  0  0  0
    7.3773    8.8224   21.4870 C   0  0  0  0  0  0  0  0  0  0  0  0
    8.4391    6.6439   21.0235 C   0  0  0  0  0  0  0  0  0  0  0  0
    9.6494   11.1353   20.4167 C   0  0  0  0  0  0  0  0  0  0  0  0
    8.1431    7.6829   21.9046 C   0  0  0  0  0  0  0  0  0  0  0  0
    7.7796   10.1314   21.5115 N   0  0  0  0  0  0  0  0  0  0  0  0
    9.2768    5.6183   21.4437 C   0  0  0  0  0  0  0  0  0  0  0  0
    8.6315    7.7322   23.1768 C   0  0  0  0  0  0  0  0  0  0  0  0
   13.0537    9.9821   20.5781 C   0  0  0  0  0  0  0  0  0  0  0  0
   10.3850    4.6575   23.2386 O   0  0  0  0  0  0  0  0  0  0  0  0
    4.2069    6.8450   20.7994 C   0  0  0  0  0  0  0  0  0  0  0  0
    3.0726   10.1043   19.8522 O   0  0  0  0  0  0  0  0  0  0  0  0
    5.5057    7.1196   21.1155 C   0  0  0  0  0  0  0  0  0  0  0  0
    7.0367   11.0229   21.9948 O   0  0  0  0  0  0  0  0  0  0  0  0
  1  8  4  0
  1 12  4  0
  2  9  1  0
  2 11  4  0
  2 25  4  0
  3 12  4  0
  3 14  1  0
  3 23  4  0
  4 13  4  0
  4 21  4  0
  4 24  1  0
  5  8  4  0
  5 23  4  0
  6 18  2  0
  7 15  4  0
  7 16  1  0
  7 27  4  0
  8 18  1  0
 10 18  1  0
 10 20  1  0
 11 15  4  0
 11 26  1  0
 13 22  4  0
 16 19  1  0
 16 20  2  0
 17 19  4  0
 17 21  4  0
 19 22  4  0
 20 28  1  0
 25 27  4  0
M  END
$$$$

 Created by Python create_sdf_string function

 28 30  0  0  0  0  0  0  0  0999 V2000
   11.4592   11.2893   18.7941 C   0  0  0  0  0  0  0  0  0  0  0  0
    3.4202    7.9009   20.3866 C   0  0  0  0  0  0  0  0  0  0  0  0
   13.5280   10.3522   19.3586 C   0  0  0  0  0  0  0  0  0  0  0  0
    9.6923    5.6468   22.7891 C   0  0  0  0  0  0  0  0  0  0  0  0
   11.7756   10.2554   20.8841 N   0  0  0  0  0  0  0  0  0  0  0  0
    8.9876   11.9370   19.8757 O   0  0  0  0  0  0  0  0  0  0  0  0
    6.0167    8.4478   21.1089 C   0  0  0  0  0  0  0  0  0  0  0  0
   11.0002   10.8890   20.0262 C   0  0  0  0  0  0  0  0  0  0  0  0
    2.1721    7.7393   20.0315 O   0  0  0  0  0  0  0  0  0  0  0  0
    9.1107   10.3880   21.3769 N   0  0  0  0  0  0  0  0  0  0  0  0
    3.9102    9.2008   20.3124 C   0  0  0  0  0  0  0  0  0  0  0  0
   12.7292   10.9960   18.4597 C   0  0  0  0  0  0  0  0  0  0  0  0
    9.3798    6.6793   23.6625 C   0  0  0  0  0  0  0  0  0  0  0  0
   14.7425   10.0739   19.0802 O   0  0  0  0  0  0  0  0  0  0  0  0
    5.1894    9.4673   20.7118 C   0  0  0  0  0  0  0  0  0  0  0  0
    7.3773    8.8224   21.4870 C   0  0  0  0  0  0  0  0  0  0  0  0
    8.4391    6.6439   21.0235 C   0  0  0  0  0  0  0  0  0  0  0  0
    9.6494   11.1353   20.4167 C   0  0  0  0  0  0  0  0  0  0  0  0
    8.1431    7.6829   21.9046 C   0  0  0  0  0  0  0  0  0  0  0  0
    7.7796   10.1314   21.5115 N   0  0  0  0  0  0  0  0  0  0  0  0
    9.2768    5.6183   21.4437 C   0  0  0  0  0  0  0  0  0  0  0  0
    8.6315    7.7322   23.1768 C   0  0  0  0  0  0  0  0  0  0  0  0
   13.0537    9.9821   20.5781 C   0  0  0  0  0  0  0  0  0  0  0  0
   10.3850    4.6575   23.2386 O   0  0  0  0  0  0  0  0  0  0  0  0
    4.2069    6.8450   20.7994 C   0  0  0  0  0  0  0  0  0  0  0  0
    3.0726   10.1043   19.8522 O   0  0  0  0  0  0  0  0  0  0  0  0
    5.5057    7.1196   21.1155 C   0  0  0  0  0  0  0  0  0  0  0  0
    7.0367   11.0229   21.9948 O   0  0  0  0  0  0  0  0  0  0  0  0
  1  8  4  0
  1 12  4  0
  2  9  1  0
  2 11  4  0
  2 25  4  0
  3 12  4  0
  3 14  1  0
  3 23  4  0
  4 13  4  0
  4 21  4  0
  4 24  1  0
  5  8  4  0
  5 23  4  0
  6 18  2  0
  7 15  4  0
  7 16  1  0
  7 27  4  0
  8 18  1  0
 10 18  1  0
 10 20  1  0
 11 15  4  0
 11 26  1  0
 13 22  4  0
 16 19  1  0
 16 20  2  0
 17 19  4  0
 17 21  4  0
 19 22  4  0
 20 28  1  0
 25 27  4  0
M  END
$$$$

 Created by Python create_sdf_string function

 28 30  0  0  0  0  0  0  0  0999 V2000
   11.4592   11.2893   18.7941 C   0  0  0  0  0  0  0  0  0  0  0  0
    3.4202    7.9009   20.3866 C   0  0  0  0  0  0  0  0  0  0  0  0
   13.5280   10.3522   19.3586 C   0  0  0  0  0  0  0  0  0  0  0  0
    9.6923    5.6468   22.7891 C   0  0  0  0  0  0  0  0  0  0  0  0
   11.7756   10.2554   20.8841 N   0  0  0  0  0  0  0  0  0  0  0  0
    8.9876   11.9370   19.8757 O   0  0  0  0  0  0  0  0  0  0  0  0
    6.0167    8.4478   21.1089 C   0  0  0  0  0  0  0  0  0  0  0  0
   11.0002   10.8890   20.0262 C   0  0  0  0  0  0  0  0  0  0  0  0
    2.1721    7.7393   20.0315 O   0  0  0  0  0  0  0  0  0  0  0  0
    9.1107   10.3880   21.3769 N   0  0  0  0  0  0  0  0  0  0  0  0
    3.9102    9.2008   20.3124 C   0  0  0  0  0  0  0  0  0  0  0  0
   12.7292   10.9960   18.4597 C   0  0  0  0  0  0  0  0  0  0  0  0
    9.3798    6.6793   23.6625 C   0  0  0  0  0  0  0  0  0  0  0  0
   14.7425   10.0739   19.0802 O   0  0  0  0  0  0  0  0  0  0  0  0
    5.1894    9.4673   20.7118 C   0  0  0  0  0  0  0  0  0  0  0  0
    7.3773    8.8224   21.4870 C   0  0  0  0  0  0  0  0  0  0  0  0
    8.4391    6.6439   21.0235 C   0  0  0  0  0  0  0  0  0  0  0  0
    9.6494   11.1353   20.4167 C   0  0  0  0  0  0  0  0  0  0  0  0
    8.1431    7.6829   21.9046 C   0  0  0  0  0  0  0  0  0  0  0  0
    7.7796   10.1314   21.5115 N   0  0  0  0  0  0  0  0  0  0  0  0
    9.2768    5.6183   21.4437 C   0  0  0  0  0  0  0  0  0  0  0  0
    8.6315    7.7322   23.1768 C   0  0  0  0  0  0  0  0  0  0  0  0
   13.0537    9.9821   20.5781 C   0  0  0  0  0  0  0  0  0  0  0  0
   10.3850    4.6575   23.2386 O   0  0  0  0  0  0  0  0  0  0  0  0
    4.2069    6.8450   20.7994 C   0  0  0  0  0  0  0  0  0  0  0  0
    3.0726   10.1043   19.8522 O   0  0  0  0  0  0  0  0  0  0  0  0
    5.5057    7.1196   21.1155 C   0  0  0  0  0  0  0  0  0  0  0  0
    7.0367   11.0229   21.9948 O   0  0  0  0  0  0  0  0  0  0  0  0
  1  8  4  0
  1 12  4  0
  2  9  1  0
  2 11  4  0
  2 25  4  0
  3 12  4  0
  3 14  1  0
  3 23  4  0
  4 13  4  0
  4 21  4  0
  4 24  1  0
  5  8  4  0
  5 23  4  0
  6 18  2  0
  7 15  4  0
  7 16  1  0
  7 27  4  0
  8 18  1  0
 10 18  1  0
 10 20  1  0
 11 15  4  0
 11 26  1  0
 13 22  4  0
 16 19  1  0
 16 20  2  0
 17 19  4  0
 17 21  4  0
 19 22  4  0
 20 28  1  0
 25 27  4  0
M  END
$$$$

 Created by Python create_sdf_string function

 28 30  0  0  0  0  0  0  0  0999 V2000
   11.4592   11.2893   18.7941 C   0  0  0  0  0  0  0  0  0  0  0  0
    3.4202    7.9009   20.3866 C   0  0  0  0  0  0  0  0  0  0  0  0
   13.5280   10.3522   19.3586 C   0  0  0  0  0  0  0  0  0  0  0  0
    9.6923    5.6468   22.7891 C   0  0  0  0  0  0  0  0  0  0  0  0
   11.7756   10.2554   20.8841 N   0  0  0  0  0  0  0  0  0  0  0  0
    8.9876   11.9370   19.8757 O   0  0  0  0  0  0  0  0  0  0  0  0
    6.0167    8.4478   21.1089 C   0  0  0  0  0  0  0  0  0  0  0  0
   11.0002   10.8890   20.0262 C   0  0  0  0  0  0  0  0  0  0  0  0
    2.1721    7.7393   20.0315 O   0  0  0  0  0  0  0  0  0  0  0  0
    9.1107   10.3880   21.3769 N   0  0  0  0  0  0  0  0  0  0  0  0
    3.9102    9.2008   20.3124 C   0  0  0  0  0  0  0  0  0  0  0  0
   12.7292   10.9960   18.4597 C   0  0  0  0  0  0  0  0  0  0  0  0
    9.3798    6.6793   23.6625 C   0  0  0  0  0  0  0  0  0  0  0  0
   14.7425   10.0739   19.0802 O   0  0  0  0  0  0  0  0  0  0  0  0
    5.1894    9.4673   20.7118 C   0  0  0  0  0  0  0  0  0  0  0  0
    7.3773    8.8224   21.4870 C   0  0  0  0  0  0  0  0  0  0  0  0
    8.4391    6.6439   21.0235 C   0  0  0  0  0  0  0  0  0  0  0  0
    9.6494   11.1353   20.4167 C   0  0  0  0  0  0  0  0  0  0  0  0
    8.1431    7.6829   21.9046 C   0  0  0  0  0  0  0  0  0  0  0  0
    7.7796   10.1314   21.5115 N   0  0  0  0  0  0  0  0  0  0  0  0
    9.2768    5.6183   21.4437 C   0  0  0  0  0  0  0  0  0  0  0  0
    8.6315    7.7322   23.1768 C   0  0  0  0  0  0  0  0  0  0  0  0
   13.0537    9.9821   20.5781 C   0  0  0  0  0  0  0  0  0  0  0  0
   10.3850    4.6575   23.2386 O   0  0  0  0  0  0  0  0  0  0  0  0
    4.2069    6.8450   20.7994 C   0  0  0  0  0  0  0  0  0  0  0  0
    3.0726   10.1043   19.8522 O   0  0  0  0  0  0  0  0  0  0  0  0
    5.5057    7.1196   21.1155 C   0  0  0  0  0  0  0  0  0  0  0  0
    7.0367   11.0229   21.9948 O   0  0  0  0  0  0  0  0  0  0  0  0
  1  8  4  0
  1 12  4  0
  2  9  1  0
  2 11  4  0
  2 25  4  0
  3 12  4  0
  3 14  1  0
  3 23  4  0
  4 13  4  0
  4 21  4  0
  4 24  1  0
  5  8  4  0
  5 23  4  0
  6 18  2  0
  7 15  4  0
  7 16  1  0
  7 27  4  0
  8 18  1  0
 10 18  1  0
 10 20  1  0
 11 15  4  0
 11 26  1  0
 13 22  4  0
 16 19  1  0
 16 20  2  0
 17 19  4  0
 17 21  4  0
 19 22  4  0
 20 28  1  0
 25 27  4  0
M  END
$$$$

 Created by Python create_sdf_string function

 28 30  0  0  0  0  0  0  0  0999 V2000
   11.4592   11.2893   18.7941 C   0  0  0  0  0  0  0  0  0  0  0  0
    3.4202    7.9009   20.3866 C   0  0  0  0  0  0  0  0  0  0  0  0
   13.5280   10.3522   19.3586 C   0  0  0  0  0  0  0  0  0  0  0  0
    9.6923    5.6468   22.7891 C   0  0  0  0  0  0  0  0  0  0  0  0
   11.7756   10.2554   20.8841 N   0  0  0  0  0  0  0  0  0  0  0  0
    8.9876   11.9370   19.8757 O   0  0  0  0  0  0  0  0  0  0  0  0
    6.0167    8.4478   21.1089 C   0  0  0  0  0  0  0  0  0  0  0  0
   11.0002   10.8890   20.0262 C   0  0  0  0  0  0  0  0  0  0  0  0
    2.1721    7.7393   20.0315 O   0  0  0  0  0  0  0  0  0  0  0  0
    9.1107   10.3880   21.3769 N   0  0  0  0  0  0  0  0  0  0  0  0
    3.9102    9.2008   20.3124 C   0  0  0  0  0  0  0  0  0  0  0  0
   12.7292   10.9960   18.4597 C   0  0  0  0  0  0  0  0  0  0  0  0
    9.3798    6.6793   23.6625 C   0  0  0  0  0  0  0  0  0  0  0  0
   14.7425   10.0739   19.0802 O   0  0  0  0  0  0  0  0  0  0  0  0
    5.1894    9.4673   20.7118 C   0  0  0  0  0  0  0  0  0  0  0  0
    7.3773    8.8224   21.4870 C   0  0  0  0  0  0  0  0  0  0  0  0
    8.4391    6.6439   21.0235 C   0  0  0  0  0  0  0  0  0  0  0  0
    9.6494   11.1353   20.4167 C   0  0  0  0  0  0  0  0  0  0  0  0
    8.1431    7.6829   21.9046 C   0  0  0  0  0  0  0  0  0  0  0  0
    7.7796   10.1314   21.5115 N   0  0  0  0  0  0  0  0  0  0  0  0
    9.2768    5.6183   21.4437 C   0  0  0  0  0  0  0  0  0  0  0  0
    8.6315    7.7322   23.1768 C   0  0  0  0  0  0  0  0  0  0  0  0
   13.0537    9.9821   20.5781 C   0  0  0  0  0  0  0  0  0  0  0  0
   10.3850    4.6575   23.2386 O   0  0  0  0  0  0  0  0  0  0  0  0
    4.2069    6.8450   20.7994 C   0  0  0  0  0  0  0  0  0  0  0  0
    3.0726   10.1043   19.8522 O   0  0  0  0  0  0  0  0  0  0  0  0
    5.5057    7.1196   21.1155 C   0  0  0  0  0  0  0  0  0  0  0  0
    7.0367   11.0229   21.9948 O   0  0  0  0  0  0  0  0  0  0  0  0
  1  8  4  0
  1 12  4  0
  2  9  1  0
  2 11  4  0
  2 25  4  0
  3 12  4  0
  3 14  1  0
  3 23  4  0
  4 13  4  0
  4 21  4  0
  4 24  1  0
  5  8  4  0
  5 23  4  0
  6 18  2  0
  7 15  4  0
  7 16  1  0
  7 27  4  0
  8 18  1  0
 10 18  1  0
 10 20  1  0
 11 15  4  0
 11 26  1  0
 13 22  4  0
 16 19  1  0
 16 20  2  0
 17 19  4  0
 17 21  4  0
 19 22  4  0
 20 28  1  0
 25 27  4  0
M  END
$$$$

 Created by Python create_sdf_string function

 28 30  0  0  0  0  0  0  0  0999 V2000
   11.4592   11.2893   18.7941 C   0  0  0  0  0  0  0  0  0  0  0  0
    3.4202    7.9009   20.3866 C   0  0  0  0  0  0  0  0  0  0  0  0
   13.5280   10.3522   19.3586 C   0  0  0  0  0  0  0  0  0  0  0  0
    9.6923    5.6468   22.7891 C   0  0  0  0  0  0  0  0  0  0  0  0
   11.7756   10.2554   20.8841 N   0  0  0  0  0  0  0  0  0  0  0  0
    8.9876   11.9370   19.8757 O   0  0  0  0  0  0  0  0  0  0  0  0
    6.0167    8.4478   21.1089 C   0  0  0  0  0  0  0  0  0  0  0  0
   11.0002   10.8890   20.0262 C   0  0  0  0  0  0  0  0  0  0  0  0
    2.1721    7.7393   20.0315 O   0  0  0  0  0  0  0  0  0  0  0  0
    9.1107   10.3880   21.3769 N   0  0  0  0  0  0  0  0  0  0  0  0
    3.9102    9.2008   20.3124 C   0  0  0  0  0  0  0  0  0  0  0  0
   12.7292   10.9960   18.4597 C   0  0  0  0  0  0  0  0  0  0  0  0
    9.3798    6.6793   23.6625 C   0  0  0  0  0  0  0  0  0  0  0  0
   14.7425   10.0739   19.0802 O   0  0  0  0  0  0  0  0  0  0  0  0
    5.1894    9.4673   20.7118 C   0  0  0  0  0  0  0  0  0  0  0  0
    7.3773    8.8224   21.4870 C   0  0  0  0  0  0  0  0  0  0  0  0
    8.4391    6.6439   21.0235 C   0  0  0  0  0  0  0  0  0  0  0  0
    9.6494   11.1353   20.4167 C   0  0  0  0  0  0  0  0  0  0  0  0
    8.1431    7.6829   21.9046 C   0  0  0  0  0  0  0  0  0  0  0  0
    7.7796   10.1314   21.5115 N   0  0  0  0  0  0  0  0  0  0  0  0
    9.2768    5.6183   21.4437 C   0  0  0  0  0  0  0  0  0  0  0  0
    8.6315    7.7322   23.1768 C   0  0  0  0  0  0  0  0  0  0  0  0
   13.0537    9.9821   20.5781 C   0  0  0  0  0  0  0  0  0  0  0  0
   10.3850    4.6575   23.2386 O   0  0  0  0  0  0  0  0  0  0  0  0
    4.2069    6.8450   20.7994 C   0  0  0  0  0  0  0  0  0  0  0  0
    3.0726   10.1043   19.8522 O   0  0  0  0  0  0  0  0  0  0  0  0
    5.5057    7.1196   21.1155 C   0  0  0  0  0  0  0  0  0  0  0  0
    7.0367   11.0229   21.9948 O   0  0  0  0  0  0  0  0  0  0  0  0
  1  8  4  0
  1 12  4  0
  2  9  1  0
  2 11  4  0
  2 25  4  0
  3 12  4  0
  3 14  1  0
  3 23  4  0
  4 13  4  0
  4 21  4  0
  4 24  1  0
  5  8  4  0
  5 23  4  0
  6 18  2  0
  7 15  4  0
  7 16  1  0
  7 27  4  0
  8 18  1  0
 10 18  1  0
 10 20  1  0
 11 15  4  0
 11 26  1  0
 13 22  4  0
 16 19  1  0
 16 20  2  0
 17 19  4  0
 17 21  4  0
 19 22  4  0
 20 28  1  0
 25 27  4  0
M  END
$$$$

 Created by Python create_sdf_string function

 28 30  0  0  0  0  0  0  0  0999 V2000
   11.4592   11.2893   18.7941 C   0  0  0  0  0  0  0  0  0  0  0  0
    3.4202    7.9009   20.3866 C   0  0  0  0  0  0  0  0  0  0  0  0
   13.5280   10.3522   19.3586 C   0  0  0  0  0  0  0  0  0  0  0  0
    9.6923    5.6468   22.7891 C   0  0  0  0  0  0  0  0  0  0  0  0
   11.7756   10.2554   20.8841 N   0  0  0  0  0  0  0  0  0  0  0  0
    8.9876   11.9370   19.8757 O   0  0  0  0  0  0  0  0  0  0  0  0
    6.0167    8.4478   21.1089 C   0  0  0  0  0  0  0  0  0  0  0  0
   11.0002   10.8890   20.0262 C   0  0  0  0  0  0  0  0  0  0  0  0
    2.1721    7.7393   20.0315 O   0  0  0  0  0  0  0  0  0  0  0  0
    9.1107   10.3880   21.3769 N   0  0  0  0  0  0  0  0  0  0  0  0
    3.9102    9.2008   20.3124 C   0  0  0  0  0  0  0  0  0  0  0  0
   12.7292   10.9960   18.4597 C   0  0  0  0  0  0  0  0  0  0  0  0
    9.3798    6.6793   23.6625 C   0  0  0  0  0  0  0  0  0  0  0  0
   14.7425   10.0739   19.0802 O   0  0  0  0  0  0  0  0  0  0  0  0
    5.1894    9.4673   20.7118 C   0  0  0  0  0  0  0  0  0  0  0  0
    7.3773    8.8224   21.4870 C   0  0  0  0  0  0  0  0  0  0  0  0
    8.4391    6.6439   21.0235 C   0  0  0  0  0  0  0  0  0  0  0  0
    9.6494   11.1353   20.4167 C   0  0  0  0  0  0  0  0  0  0  0  0
    8.1431    7.6829   21.9046 C   0  0  0  0  0  0  0  0  0  0  0  0
    7.7796   10.1314   21.5115 N   0  0  0  0  0  0  0  0  0  0  0  0
    9.2768    5.6183   21.4437 C   0  0  0  0  0  0  0  0  0  0  0  0
    8.6315    7.7322   23.1768 C   0  0  0  0  0  0  0  0  0  0  0  0
   13.0537    9.9821   20.5781 C   0  0  0  0  0  0  0  0  0  0  0  0
   10.3850    4.6575   23.2386 O   0  0  0  0  0  0  0  0  0  0  0  0
    4.2069    6.8450   20.7994 C   0  0  0  0  0  0  0  0  0  0  0  0
    3.0726   10.1043   19.8522 O   0  0  0  0  0  0  0  0  0  0  0  0
    5.5057    7.1196   21.1155 C   0  0  0  0  0  0  0  0  0  0  0  0
    7.0367   11.0229   21.9948 O   0  0  0  0  0  0  0  0  0  0  0  0
  1  8  4  0
  1 12  4  0
  2  9  1  0
  2 11  4  0
  2 25  4  0
  3 12  4  0
  3 14  1  0
  3 23  4  0
  4 13  4  0
  4 21  4  0
  4 24  1  0
  5  8  4  0
  5 23  4  0
  6 18  2  0
  7 15  4  0
  7 16  1  0
  7 27  4  0
  8 18  1  0
 10 18  1  0
 10 20  1  0
 11 15  4  0
 11 26  1  0
 13 22  4  0
 16 19  1  0
 16 20  2  0
 17 19  4  0
 17 21  4  0
 19 22  4  0
 20 28  1  0
 25 27  4  0
M  END
$$$$

 Created by Python create_sdf_string function

 28 30  0  0  0  0  0  0  0  0999 V2000
   11.4592   11.2893   18.7941 C   0  0  0  0  0  0  0  0  0  0  0  0
    3.4202    7.9009   20.3866 C   0  0  0  0  0  0  0  0  0  0  0  0
   13.5280   10.3522   19.3586 C   0  0  0  0  0  0  0  0  0  0  0  0
    9.6923    5.6468   22.7891 C   0  0  0  0  0  0  0  0  0  0  0  0
   11.7756   10.2554   20.8841 N   0  0  0  0  0  0  0  0  0  0  0  0
    8.9876   11.9370   19.8757 O   0  0  0  0  0  0  0  0  0  0  0  0
    6.0167    8.4478   21.1089 C   0  0  0  0  0  0  0  0  0  0  0  0
   11.0002   10.8890   20.0262 C   0  0  0  0  0  0  0  0  0  0  0  0
    2.1721    7.7393   20.0315 O   0  0  0  0  0  0  0  0  0  0  0  0
    9.1107   10.3880   21.3769 N   0  0  0  0  0  0  0  0  0  0  0  0
    3.9102    9.2008   20.3124 C   0  0  0  0  0  0  0  0  0  0  0  0
   12.7292   10.9960   18.4597 C   0  0  0  0  0  0  0  0  0  0  0  0
    9.3798    6.6793   23.6625 C   0  0  0  0  0  0  0  0  0  0  0  0
   14.7425   10.0739   19.0802 O   0  0  0  0  0  0  0  0  0  0  0  0
    5.1894    9.4673   20.7118 C   0  0  0  0  0  0  0  0  0  0  0  0
    7.3773    8.8224   21.4870 C   0  0  0  0  0  0  0  0  0  0  0  0
    8.4391    6.6439   21.0235 C   0  0  0  0  0  0  0  0  0  0  0  0
    9.6494   11.1353   20.4167 C   0  0  0  0  0  0  0  0  0  0  0  0
    8.1431    7.6829   21.9046 C   0  0  0  0  0  0  0  0  0  0  0  0
    7.7796   10.1314   21.5115 N   0  0  0  0  0  0  0  0  0  0  0  0
    9.2768    5.6183   21.4437 C   0  0  0  0  0  0  0  0  0  0  0  0
    8.6315    7.7322   23.1768 C   0  0  0  0  0  0  0  0  0  0  0  0
   13.0537    9.9821   20.5781 C   0  0  0  0  0  0  0  0  0  0  0  0
   10.3850    4.6575   23.2386 O   0  0  0  0  0  0  0  0  0  0  0  0
    4.2069    6.8450   20.7994 C   0  0  0  0  0  0  0  0  0  0  0  0
    3.0726   10.1043   19.8522 O   0  0  0  0  0  0  0  0  0  0  0  0
    5.5057    7.1196   21.1155 C   0  0  0  0  0  0  0  0  0  0  0  0
    7.0367   11.0229   21.9948 O   0  0  0  0  0  0  0  0  0  0  0  0
  1  8  4  0
  1 12  4  0
  2  9  1  0
  2 11  4  0
  2 25  4  0
  3 12  4  0
  3 14  1  0
  3 23  4  0
  4 13  4  0
  4 21  4  0
  4 24  1  0
  5  8  4  0
  5 23  4  0
  6 18  2  0
  7 15  4  0
  7 16  1  0
  7 27  4  0
  8 18  1  0
 10 18  1  0
 10 20  1  0
 11 15  4  0
 11 26  1  0
 13 22  4  0
 16 19  1  0
 16 20  2  0
 17 19  4  0
 17 21  4  0
 19 22  4  0
 20 28  1  0
 25 27  4  0
M  END
$$$$

 Created by Python create_sdf_string function

 28 30  0  0  0  0  0  0  0  0999 V2000
   11.4592   11.2893   18.7941 C   0  0  0  0  0  0  0  0  0  0  0  0
    3.4202    7.9009   20.3866 C   0  0  0  0  0  0  0  0  0  0  0  0
   13.5280   10.3522   19.3586 C   0  0  0  0  0  0  0  0  0  0  0  0
    9.6923    5.6468   22.7891 C   0  0  0  0  0  0  0  0  0  0  0  0
   11.7756   10.2554   20.8841 N   0  0  0  0  0  0  0  0  0  0  0  0
    8.9876   11.9370   19.8757 O   0  0  0  0  0  0  0  0  0  0  0  0
    6.0167    8.4478   21.1089 C   0  0  0  0  0  0  0  0  0  0  0  0
   11.0002   10.8890   20.0262 C   0  0  0  0  0  0  0  0  0  0  0  0
    2.1721    7.7393   20.0315 O   0  0  0  0  0  0  0  0  0  0  0  0
    9.1107   10.3880   21.3769 N   0  0  0  0  0  0  0  0  0  0  0  0
    3.9102    9.2008   20.3124 C   0  0  0  0  0  0  0  0  0  0  0  0
   12.7292   10.9960   18.4597 C   0  0  0  0  0  0  0  0  0  0  0  0
    9.3798    6.6793   23.6625 C   0  0  0  0  0  0  0  0  0  0  0  0
   14.7425   10.0739   19.0802 O   0  0  0  0  0  0  0  0  0  0  0  0
    5.1894    9.4673   20.7118 C   0  0  0  0  0  0  0  0  0  0  0  0
    7.3773    8.8224   21.4870 C   0  0  0  0  0  0  0  0  0  0  0  0
    8.4391    6.6439   21.0235 C   0  0  0  0  0  0  0  0  0  0  0  0
    9.6494   11.1353   20.4167 C   0  0  0  0  0  0  0  0  0  0  0  0
    8.1431    7.6829   21.9046 C   0  0  0  0  0  0  0  0  0  0  0  0
    7.7796   10.1314   21.5115 N   0  0  0  0  0  0  0  0  0  0  0  0
    9.2768    5.6183   21.4437 C   0  0  0  0  0  0  0  0  0  0  0  0
    8.6315    7.7322   23.1768 C   0  0  0  0  0  0  0  0  0  0  0  0
   13.0537    9.9821   20.5781 C   0  0  0  0  0  0  0  0  0  0  0  0
   10.3850    4.6575   23.2386 O   0  0  0  0  0  0  0  0  0  0  0  0
    4.2069    6.8450   20.7994 C   0  0  0  0  0  0  0  0  0  0  0  0
    3.0726   10.1043   19.8522 O   0  0  0  0  0  0  0  0  0  0  0  0
    5.5057    7.1196   21.1155 C   0  0  0  0  0  0  0  0  0  0  0  0
    7.0367   11.0229   21.9948 O   0  0  0  0  0  0  0  0  0  0  0  0
  1  8  4  0
  1 12  4  0
  2  9  1  0
  2 11  4  0
  2 25  4  0
  3 12  4  0
  3 14  1  0
  3 23  4  0
  4 13  4  0
  4 21  4  0
  4 24  1  0
  5  8  4  0
  5 23  4  0
  6 18  2  0
  7 15  4  0
  7 16  1  0
  7 27  4  0
  8 18  1  0
 10 18  1  0
 10 20  1  0
 11 15  4  0
 11 26  1  0
 13 22  4  0
 16 19  1  0
 16 20  2  0
 17 19  4  0
 17 21  4  0
 19 22  4  0
 20 28  1  0
 25 27  4  0
M  END
$$$$

 Created by Python create_sdf_string function

 28 30  0  0  0  0  0  0  0  0999 V2000
   11.4592   11.2893   18.7941 C   0  0  0  0  0  0  0  0  0  0  0  0
    3.4202    7.9009   20.3866 C   0  0  0  0  0  0  0  0  0  0  0  0
   13.5280   10.3522   19.3586 C   0  0  0  0  0  0  0  0  0  0  0  0
    9.6923    5.6468   22.7891 C   0  0  0  0  0  0  0  0  0  0  0  0
   11.7756   10.2554   20.8841 N   0  0  0  0  0  0  0  0  0  0  0  0
    8.9876   11.9370   19.8757 O   0  0  0  0  0  0  0  0  0  0  0  0
    6.0167    8.4478   21.1089 C   0  0  0  0  0  0  0  0  0  0  0  0
   11.0002   10.8890   20.0262 C   0  0  0  0  0  0  0  0  0  0  0  0
    2.1721    7.7393   20.0315 O   0  0  0  0  0  0  0  0  0  0  0  0
    9.1107   10.3880   21.3769 N   0  0  0  0  0  0  0  0  0  0  0  0
    3.9102    9.2008   20.3124 C   0  0  0  0  0  0  0  0  0  0  0  0
   12.7292   10.9960   18.4597 C   0  0  0  0  0  0  0  0  0  0  0  0
    9.3798    6.6793   23.6625 C   0  0  0  0  0  0  0  0  0  0  0  0
   14.7425   10.0739   19.0802 O   0  0  0  0  0  0  0  0  0  0  0  0
    5.1894    9.4673   20.7118 C   0  0  0  0  0  0  0  0  0  0  0  0
    7.3773    8.8224   21.4870 C   0  0  0  0  0  0  0  0  0  0  0  0
    8.4391    6.6439   21.0235 C   0  0  0  0  0  0  0  0  0  0  0  0
    9.6494   11.1353   20.4167 C   0  0  0  0  0  0  0  0  0  0  0  0
    8.1431    7.6829   21.9046 C   0  0  0  0  0  0  0  0  0  0  0  0
    7.7796   10.1314   21.5115 N   0  0  0  0  0  0  0  0  0  0  0  0
    9.2768    5.6183   21.4437 C   0  0  0  0  0  0  0  0  0  0  0  0
    8.6315    7.7322   23.1768 C   0  0  0  0  0  0  0  0  0  0  0  0
   13.0537    9.9821   20.5781 C   0  0  0  0  0  0  0  0  0  0  0  0
   10.3850    4.6575   23.2386 O   0  0  0  0  0  0  0  0  0  0  0  0
    4.2069    6.8450   20.7994 C   0  0  0  0  0  0  0  0  0  0  0  0
    3.0726   10.1043   19.8522 O   0  0  0  0  0  0  0  0  0  0  0  0
    5.5057    7.1196   21.1155 C   0  0  0  0  0  0  0  0  0  0  0  0
    7.0367   11.0229   21.9948 O   0  0  0  0  0  0  0  0  0  0  0  0
  1  8  4  0
  1 12  4  0
  2  9  1  0
  2 11  4  0
  2 25  4  0
  3 12  4  0
  3 14  1  0
  3 23  4  0
  4 13  4  0
  4 21  4  0
  4 24  1  0
  5  8  4  0
  5 23  4  0
  6 18  2  0
  7 15  4  0
  7 16  1  0
  7 27  4  0
  8 18  1  0
 10 18  1  0
 10 20  1  0
 11 15  4  0
 11 26  1  0
 13 22  4  0
 16 19  1  0
 16 20  2  0
 17 19  4  0
 17 21  4  0
 19 22  4  0
 20 28  1  0
 25 27  4  0
M  END
$$$$

 Created by Python create_sdf_string function

 28 30  0  0  0  0  0  0  0  0999 V2000
   11.4592   11.2893   18.7941 C   0  0  0  0  0  0  0  0  0  0  0  0
    3.4202    7.9009   20.3866 C   0  0  0  0  0  0  0  0  0  0  0  0
   13.5280   10.3522   19.3586 C   0  0  0  0  0  0  0  0  0  0  0  0
    9.6923    5.6468   22.7891 C   0  0  0  0  0  0  0  0  0  0  0  0
   11.7756   10.2554   20.8841 N   0  0  0  0  0  0  0  0  0  0  0  0
    8.9876   11.9370   19.8757 O   0  0  0  0  0  0  0  0  0  0  0  0
    6.0167    8.4478   21.1089 C   0  0  0  0  0  0  0  0  0  0  0  0
   11.0002   10.8890   20.0262 C   0  0  0  0  0  0  0  0  0  0  0  0
    2.1721    7.7393   20.0315 O   0  0  0  0  0  0  0  0  0  0  0  0
    9.1107   10.3880   21.3769 N   0  0  0  0  0  0  0  0  0  0  0  0
    3.9102    9.2008   20.3124 C   0  0  0  0  0  0  0  0  0  0  0  0
   12.7292   10.9960   18.4597 C   0  0  0  0  0  0  0  0  0  0  0  0
    9.3798    6.6793   23.6625 C   0  0  0  0  0  0  0  0  0  0  0  0
   14.7425   10.0739   19.0802 O   0  0  0  0  0  0  0  0  0  0  0  0
    5.1894    9.4673   20.7118 C   0  0  0  0  0  0  0  0  0  0  0  0
    7.3773    8.8224   21.4870 C   0  0  0  0  0  0  0  0  0  0  0  0
    8.4391    6.6439   21.0235 C   0  0  0  0  0  0  0  0  0  0  0  0
    9.6494   11.1353   20.4167 C   0  0  0  0  0  0  0  0  0  0  0  0
    8.1431    7.6829   21.9046 C   0  0  0  0  0  0  0  0  0  0  0  0
    7.7796   10.1314   21.5115 N   0  0  0  0  0  0  0  0  0  0  0  0
    9.2768    5.6183   21.4437 C   0  0  0  0  0  0  0  0  0  0  0  0
    8.6315    7.7322   23.1768 C   0  0  0  0  0  0  0  0  0  0  0  0
   13.0537    9.9821   20.5781 C   0  0  0  0  0  0  0  0  0  0  0  0
   10.3850    4.6575   23.2386 O   0  0  0  0  0  0  0  0  0  0  0  0
    4.2069    6.8450   20.7994 C   0  0  0  0  0  0  0  0  0  0  0  0
    3.0726   10.1043   19.8522 O   0  0  0  0  0  0  0  0  0  0  0  0
    5.5057    7.1196   21.1155 C   0  0  0  0  0  0  0  0  0  0  0  0
    7.0367   11.0229   21.9948 O   0  0  0  0  0  0  0  0  0  0  0  0
  1  8  4  0
  1 12  4  0
  2  9  1  0
  2 11  4  0
  2 25  4  0
  3 12  4  0
  3 14  1  0
  3 23  4  0
  4 13  4  0
  4 21  4  0
  4 24  1  0
  5  8  4  0
  5 23  4  0
  6 18  2  0
  7 15  4  0
  7 16  1  0
  7 27  4  0
  8 18  1  0
 10 18  1  0
 10 20  1  0
 11 15  4  0
 11 26  1  0
 13 22  4  0
 16 19  1  0
 16 20  2  0
 17 19  4  0
 17 21  4  0
 19 22  4  0
 20 28  1  0
 25 27  4  0
M  END
$$$$

 Created by Python create_sdf_string function

 28 30  0  0  0  0  0  0  0  0999 V2000
   11.4592   11.2893   18.7941 C   0  0  0  0  0  0  0  0  0  0  0  0
    3.4202    7.9009   20.3866 C   0  0  0  0  0  0  0  0  0  0  0  0
   13.5280   10.3522   19.3586 C   0  0  0  0  0  0  0  0  0  0  0  0
    9.6923    5.6468   22.7891 C   0  0  0  0  0  0  0  0  0  0  0  0
   11.7756   10.2554   20.8841 N   0  0  0  0  0  0  0  0  0  0  0  0
    8.9876   11.9370   19.8757 O   0  0  0  0  0  0  0  0  0  0  0  0
    6.0167    8.4478   21.1089 C   0  0  0  0  0  0  0  0  0  0  0  0
   11.0002   10.8890   20.0262 C   0  0  0  0  0  0  0  0  0  0  0  0
    2.1721    7.7393   20.0315 O   0  0  0  0  0  0  0  0  0  0  0  0
    9.1107   10.3880   21.3769 N   0  0  0  0  0  0  0  0  0  0  0  0
    3.9102    9.2008   20.3124 C   0  0  0  0  0  0  0  0  0  0  0  0
   12.7292   10.9960   18.4597 C   0  0  0  0  0  0  0  0  0  0  0  0
    9.3798    6.6793   23.6625 C   0  0  0  0  0  0  0  0  0  0  0  0
   14.7425   10.0739   19.0802 O   0  0  0  0  0  0  0  0  0  0  0  0
    5.1894    9.4673   20.7118 C   0  0  0  0  0  0  0  0  0  0  0  0
    7.3773    8.8224   21.4870 C   0  0  0  0  0  0  0  0  0  0  0  0
    8.4391    6.6439   21.0235 C   0  0  0  0  0  0  0  0  0  0  0  0
    9.6494   11.1353   20.4167 C   0  0  0  0  0  0  0  0  0  0  0  0
    8.1431    7.6829   21.9046 C   0  0  0  0  0  0  0  0  0  0  0  0
    7.7796   10.1314   21.5115 N   0  0  0  0  0  0  0  0  0  0  0  0
    9.2768    5.6183   21.4437 C   0  0  0  0  0  0  0  0  0  0  0  0
    8.6315    7.7322   23.1768 C   0  0  0  0  0  0  0  0  0  0  0  0
   13.0537    9.9821   20.5781 C   0  0  0  0  0  0  0  0  0  0  0  0
   10.3850    4.6575   23.2386 O   0  0  0  0  0  0  0  0  0  0  0  0
    4.2069    6.8450   20.7994 C   0  0  0  0  0  0  0  0  0  0  0  0
    3.0726   10.1043   19.8522 O   0  0  0  0  0  0  0  0  0  0  0  0
    5.5057    7.1196   21.1155 C   0  0  0  0  0  0  0  0  0  0  0  0
    7.0367   11.0229   21.9948 O   0  0  0  0  0  0  0  0  0  0  0  0
  1  8  4  0
  1 12  4  0
  2  9  1  0
  2 11  4  0
  2 25  4  0
  3 12  4  0
  3 14  1  0
  3 23  4  0
  4 13  4  0
  4 21  4  0
  4 24  1  0
  5  8  4  0
  5 23  4  0
  6 18  2  0
  7 15  4  0
  7 16  1  0
  7 27  4  0
  8 18  1  0
 10 18  1  0
 10 20  1  0
 11 15  4  0
 11 26  1  0
 13 22  4  0
 16 19  1  0
 16 20  2  0
 17 19  4  0
 17 21  4  0
 19 22  4  0
 20 28  1  0
 25 27  4  0
M  END
$$$$

 Created by Python create_sdf_string function

 28 30  0  0  0  0  0  0  0  0999 V2000
   11.4592   11.2893   18.7941 C   0  0  0  0  0  0  0  0  0  0  0  0
    3.4202    7.9009   20.3866 C   0  0  0  0  0  0  0  0  0  0  0  0
   13.5280   10.3522   19.3586 C   0  0  0  0  0  0  0  0  0  0  0  0
    9.6923    5.6468   22.7891 C   0  0  0  0  0  0  0  0  0  0  0  0
   11.7756   10.2554   20.8841 N   0  0  0  0  0  0  0  0  0  0  0  0
    8.9876   11.9370   19.8757 O   0  0  0  0  0  0  0  0  0  0  0  0
    6.0167    8.4478   21.1089 C   0  0  0  0  0  0  0  0  0  0  0  0
   11.0002   10.8890   20.0262 C   0  0  0  0  0  0  0  0  0  0  0  0
    2.1721    7.7393   20.0315 O   0  0  0  0  0  0  0  0  0  0  0  0
    9.1107   10.3880   21.3769 N   0  0  0  0  0  0  0  0  0  0  0  0
    3.9102    9.2008   20.3124 C   0  0  0  0  0  0  0  0  0  0  0  0
   12.7292   10.9960   18.4597 C   0  0  0  0  0  0  0  0  0  0  0  0
    9.3798    6.6793   23.6625 C   0  0  0  0  0  0  0  0  0  0  0  0
   14.7425   10.0739   19.0802 O   0  0  0  0  0  0  0  0  0  0  0  0
    5.1894    9.4673   20.7118 C   0  0  0  0  0  0  0  0  0  0  0  0
    7.3773    8.8224   21.4870 C   0  0  0  0  0  0  0  0  0  0  0  0
    8.4391    6.6439   21.0235 C   0  0  0  0  0  0  0  0  0  0  0  0
    9.6494   11.1353   20.4167 C   0  0  0  0  0  0  0  0  0  0  0  0
    8.1431    7.6829   21.9046 C   0  0  0  0  0  0  0  0  0  0  0  0
    7.7796   10.1314   21.5115 N   0  0  0  0  0  0  0  0  0  0  0  0
    9.2768    5.6183   21.4437 C   0  0  0  0  0  0  0  0  0  0  0  0
    8.6315    7.7322   23.1768 C   0  0  0  0  0  0  0  0  0  0  0  0
   13.0537    9.9821   20.5781 C   0  0  0  0  0  0  0  0  0  0  0  0
   10.3850    4.6575   23.2386 O   0  0  0  0  0  0  0  0  0  0  0  0
    4.2069    6.8450   20.7994 C   0  0  0  0  0  0  0  0  0  0  0  0
    3.0726   10.1043   19.8522 O   0  0  0  0  0  0  0  0  0  0  0  0
    5.5057    7.1196   21.1155 C   0  0  0  0  0  0  0  0  0  0  0  0
    7.0367   11.0229   21.9948 O   0  0  0  0  0  0  0  0  0  0  0  0
  1  8  4  0
  1 12  4  0
  2  9  1  0
  2 11  4  0
  2 25  4  0
  3 12  4  0
  3 14  1  0
  3 23  4  0
  4 13  4  0
  4 21  4  0
  4 24  1  0
  5  8  4  0
  5 23  4  0
  6 18  2  0
  7 15  4  0
  7 16  1  0
  7 27  4  0
  8 18  1  0
 10 18  1  0
 10 20  1  0
 11 15  4  0
 11 26  1  0
 13 22  4  0
 16 19  1  0
 16 20  2  0
 17 19  4  0
 17 21  4  0
 19 22  4  0
 20 28  1  0
 25 27  4  0
M  END
$$$$

 Created by Python create_sdf_string function

 28 30  0  0  0  0  0  0  0  0999 V2000
   11.4592   11.2893   18.7941 C   0  0  0  0  0  0  0  0  0  0  0  0
    3.4202    7.9009   20.3866 C   0  0  0  0  0  0  0  0  0  0  0  0
   13.5280   10.3522   19.3586 C   0  0  0  0  0  0  0  0  0  0  0  0
    9.6923    5.6468   22.7891 C   0  0  0  0  0  0  0  0  0  0  0  0
   11.7756   10.2554   20.8841 N   0  0  0  0  0  0  0  0  0  0  0  0
    8.9876   11.9370   19.8757 O   0  0  0  0  0  0  0  0  0  0  0  0
    6.0167    8.4478   21.1089 C   0  0  0  0  0  0  0  0  0  0  0  0
   11.0002   10.8890   20.0262 C   0  0  0  0  0  0  0  0  0  0  0  0
    2.1721    7.7393   20.0315 O   0  0  0  0  0  0  0  0  0  0  0  0
    9.1107   10.3880   21.3769 N   0  0  0  0  0  0  0  0  0  0  0  0
    3.9102    9.2008   20.3124 C   0  0  0  0  0  0  0  0  0  0  0  0
   12.7292   10.9960   18.4597 C   0  0  0  0  0  0  0  0  0  0  0  0
    9.3798    6.6793   23.6625 C   0  0  0  0  0  0  0  0  0  0  0  0
   14.7425   10.0739   19.0802 O   0  0  0  0  0  0  0  0  0  0  0  0
    5.1894    9.4673   20.7118 C   0  0  0  0  0  0  0  0  0  0  0  0
    7.3773    8.8224   21.4870 C   0  0  0  0  0  0  0  0  0  0  0  0
    8.4391    6.6439   21.0235 C   0  0  0  0  0  0  0  0  0  0  0  0
    9.6494   11.1353   20.4167 C   0  0  0  0  0  0  0  0  0  0  0  0
    8.1431    7.6829   21.9046 C   0  0  0  0  0  0  0  0  0  0  0  0
    7.7796   10.1314   21.5115 N   0  0  0  0  0  0  0  0  0  0  0  0
    9.2768    5.6183   21.4437 C   0  0  0  0  0  0  0  0  0  0  0  0
    8.6315    7.7322   23.1768 C   0  0  0  0  0  0  0  0  0  0  0  0
   13.0537    9.9821   20.5781 C   0  0  0  0  0  0  0  0  0  0  0  0
   10.3850    4.6575   23.2386 O   0  0  0  0  0  0  0  0  0  0  0  0
    4.2069    6.8450   20.7994 C   0  0  0  0  0  0  0  0  0  0  0  0
    3.0726   10.1043   19.8522 O   0  0  0  0  0  0  0  0  0  0  0  0
    5.5057    7.1196   21.1155 C   0  0  0  0  0  0  0  0  0  0  0  0
    7.0367   11.0229   21.9948 O   0  0  0  0  0  0  0  0  0  0  0  0
  1  8  4  0
  1 12  4  0
  2  9  1  0
  2 11  4  0
  2 25  4  0
  3 12  4  0
  3 14  1  0
  3 23  4  0
  4 13  4  0
  4 21  4  0
  4 24  1  0
  5  8  4  0
  5 23  4  0
  6 18  2  0
  7 15  4  0
  7 16  1  0
  7 27  4  0
  8 18  1  0
 10 18  1  0
 10 20  1  0
 11 15  4  0
 11 26  1  0
 13 22  4  0
 16 19  1  0
 16 20  2  0
 17 19  4  0
 17 21  4  0
 19 22  4  0
 20 28  1  0
 25 27  4  0
M  END
$$$$

 Created by Python create_sdf_string function

 28 30  0  0  0  0  0  0  0  0999 V2000
   11.4592   11.2893   18.7941 C   0  0  0  0  0  0  0  0  0  0  0  0
    3.4202    7.9009   20.3866 C   0  0  0  0  0  0  0  0  0  0  0  0
   13.5280   10.3522   19.3586 C   0  0  0  0  0  0  0  0  0  0  0  0
    9.6923    5.6468   22.7891 C   0  0  0  0  0  0  0  0  0  0  0  0
   11.7756   10.2554   20.8841 N   0  0  0  0  0  0  0  0  0  0  0  0
    8.9876   11.9370   19.8757 O   0  0  0  0  0  0  0  0  0  0  0  0
    6.0167    8.4478   21.1089 C   0  0  0  0  0  0  0  0  0  0  0  0
   11.0002   10.8890   20.0262 C   0  0  0  0  0  0  0  0  0  0  0  0
    2.1721    7.7393   20.0315 O   0  0  0  0  0  0  0  0  0  0  0  0
    9.1107   10.3880   21.3769 N   0  0  0  0  0  0  0  0  0  0  0  0
    3.9102    9.2008   20.3124 C   0  0  0  0  0  0  0  0  0  0  0  0
   12.7292   10.9960   18.4597 C   0  0  0  0  0  0  0  0  0  0  0  0
    9.3798    6.6793   23.6625 C   0  0  0  0  0  0  0  0  0  0  0  0
   14.7425   10.0739   19.0802 O   0  0  0  0  0  0  0  0  0  0  0  0
    5.1894    9.4673   20.7118 C   0  0  0  0  0  0  0  0  0  0  0  0
    7.3773    8.8224   21.4870 C   0  0  0  0  0  0  0  0  0  0  0  0
    8.4391    6.6439   21.0235 C   0  0  0  0  0  0  0  0  0  0  0  0
    9.6494   11.1353   20.4167 C   0  0  0  0  0  0  0  0  0  0  0  0
    8.1431    7.6829   21.9046 C   0  0  0  0  0  0  0  0  0  0  0  0
    7.7796   10.1314   21.5115 N   0  0  0  0  0  0  0  0  0  0  0  0
    9.2768    5.6183   21.4437 C   0  0  0  0  0  0  0  0  0  0  0  0
    8.6315    7.7322   23.1768 C   0  0  0  0  0  0  0  0  0  0  0  0
   13.0537    9.9821   20.5781 C   0  0  0  0  0  0  0  0  0  0  0  0
   10.3850    4.6575   23.2386 O   0  0  0  0  0  0  0  0  0  0  0  0
    4.2069    6.8450   20.7994 C   0  0  0  0  0  0  0  0  0  0  0  0
    3.0726   10.1043   19.8522 O   0  0  0  0  0  0  0  0  0  0  0  0
    5.5057    7.1196   21.1155 C   0  0  0  0  0  0  0  0  0  0  0  0
    7.0367   11.0229   21.9948 O   0  0  0  0  0  0  0  0  0  0  0  0
  1  8  4  0
  1 12  4  0
  2  9  1  0
  2 11  4  0
  2 25  4  0
  3 12  4  0
  3 14  1  0
  3 23  4  0
  4 13  4  0
  4 21  4  0
  4 24  1  0
  5  8  4  0
  5 23  4  0
  6 18  2  0
  7 15  4  0
  7 16  1  0
  7 27  4  0
  8 18  1  0
 10 18  1  0
 10 20  1  0
 11 15  4  0
 11 26  1  0
 13 22  4  0
 16 19  1  0
 16 20  2  0
 17 19  4  0
 17 21  4  0
 19 22  4  0
 20 28  1  0
 25 27  4  0
M  END
$$$$

 Created by Python create_sdf_string function

 28 30  0  0  0  0  0  0  0  0999 V2000
   11.4592   11.2893   18.7941 C   0  0  0  0  0  0  0  0  0  0  0  0
    3.4202    7.9009   20.3866 C   0  0  0  0  0  0  0  0  0  0  0  0
   13.5280   10.3522   19.3586 C   0  0  0  0  0  0  0  0  0  0  0  0
    9.6923    5.6468   22.7891 C   0  0  0  0  0  0  0  0  0  0  0  0
   11.7756   10.2554   20.8841 N   0  0  0  0  0  0  0  0  0  0  0  0
    8.9876   11.9370   19.8757 O   0  0  0  0  0  0  0  0  0  0  0  0
    6.0167    8.4478   21.1089 C   0  0  0  0  0  0  0  0  0  0  0  0
   11.0002   10.8890   20.0262 C   0  0  0  0  0  0  0  0  0  0  0  0
    2.1721    7.7393   20.0315 O   0  0  0  0  0  0  0  0  0  0  0  0
    9.1107   10.3880   21.3769 N   0  0  0  0  0  0  0  0  0  0  0  0
    3.9102    9.2008   20.3124 C   0  0  0  0  0  0  0  0  0  0  0  0
   12.7292   10.9960   18.4597 C   0  0  0  0  0  0  0  0  0  0  0  0
    9.3798    6.6793   23.6625 C   0  0  0  0  0  0  0  0  0  0  0  0
   14.7425   10.0739   19.0802 O   0  0  0  0  0  0  0  0  0  0  0  0
    5.1894    9.4673   20.7118 C   0  0  0  0  0  0  0  0  0  0  0  0
    7.3773    8.8224   21.4870 C   0  0  0  0  0  0  0  0  0  0  0  0
    8.4391    6.6439   21.0235 C   0  0  0  0  0  0  0  0  0  0  0  0
    9.6494   11.1353   20.4167 C   0  0  0  0  0  0  0  0  0  0  0  0
    8.1431    7.6829   21.9046 C   0  0  0  0  0  0  0  0  0  0  0  0
    7.7796   10.1314   21.5115 N   0  0  0  0  0  0  0  0  0  0  0  0
    9.2768    5.6183   21.4437 C   0  0  0  0  0  0  0  0  0  0  0  0
    8.6315    7.7322   23.1768 C   0  0  0  0  0  0  0  0  0  0  0  0
   13.0537    9.9821   20.5781 C   0  0  0  0  0  0  0  0  0  0  0  0
   10.3850    4.6575   23.2386 O   0  0  0  0  0  0  0  0  0  0  0  0
    4.2069    6.8450   20.7994 C   0  0  0  0  0  0  0  0  0  0  0  0
    3.0726   10.1043   19.8522 O   0  0  0  0  0  0  0  0  0  0  0  0
    5.5057    7.1196   21.1155 C   0  0  0  0  0  0  0  0  0  0  0  0
    7.0367   11.0229   21.9948 O   0  0  0  0  0  0  0  0  0  0  0  0
  1  8  4  0
  1 12  4  0
  2  9  1  0
  2 11  4  0
  2 25  4  0
  3 12  4  0
  3 14  1  0
  3 23  4  0
  4 13  4  0
  4 21  4  0
  4 24  1  0
  5  8  4  0
  5 23  4  0
  6 18  2  0
  7 15  4  0
  7 16  1  0
  7 27  4  0
  8 18  1  0
 10 18  1  0
 10 20  1  0
 11 15  4  0
 11 26  1  0
 13 22  4  0
 16 19  1  0
 16 20  2  0
 17 19  4  0
 17 21  4  0
 19 22  4  0
 20 28  1  0
 25 27  4  0
M  END
$$$$

 Created by Python create_sdf_string function

 28 30  0  0  0  0  0  0  0  0999 V2000
   11.4592   11.2893   18.7941 C   0  0  0  0  0  0  0  0  0  0  0  0
    3.4202    7.9009   20.3866 C   0  0  0  0  0  0  0  0  0  0  0  0
   13.5280   10.3522   19.3586 C   0  0  0  0  0  0  0  0  0  0  0  0
    9.6923    5.6468   22.7891 C   0  0  0  0  0  0  0  0  0  0  0  0
   11.7756   10.2554   20.8841 N   0  0  0  0  0  0  0  0  0  0  0  0
    8.9876   11.9370   19.8757 O   0  0  0  0  0  0  0  0  0  0  0  0
    6.0167    8.4478   21.1089 C   0  0  0  0  0  0  0  0  0  0  0  0
   11.0002   10.8890   20.0262 C   0  0  0  0  0  0  0  0  0  0  0  0
    2.1721    7.7393   20.0315 O   0  0  0  0  0  0  0  0  0  0  0  0
    9.1107   10.3880   21.3769 N   0  0  0  0  0  0  0  0  0  0  0  0
    3.9102    9.2008   20.3124 C   0  0  0  0  0  0  0  0  0  0  0  0
   12.7292   10.9960   18.4597 C   0  0  0  0  0  0  0  0  0  0  0  0
    9.3798    6.6793   23.6625 C   0  0  0  0  0  0  0  0  0  0  0  0
   14.7425   10.0739   19.0802 O   0  0  0  0  0  0  0  0  0  0  0  0
    5.1894    9.4673   20.7118 C   0  0  0  0  0  0  0  0  0  0  0  0
    7.3773    8.8224   21.4870 C   0  0  0  0  0  0  0  0  0  0  0  0
    8.4391    6.6439   21.0235 C   0  0  0  0  0  0  0  0  0  0  0  0
    9.6494   11.1353   20.4167 C   0  0  0  0  0  0  0  0  0  0  0  0
    8.1431    7.6829   21.9046 C   0  0  0  0  0  0  0  0  0  0  0  0
    7.7796   10.1314   21.5115 N   0  0  0  0  0  0  0  0  0  0  0  0
    9.2768    5.6183   21.4437 C   0  0  0  0  0  0  0  0  0  0  0  0
    8.6315    7.7322   23.1768 C   0  0  0  0  0  0  0  0  0  0  0  0
   13.0537    9.9821   20.5781 C   0  0  0  0  0  0  0  0  0  0  0  0
   10.3850    4.6575   23.2386 O   0  0  0  0  0  0  0  0  0  0  0  0
    4.2069    6.8450   20.7994 C   0  0  0  0  0  0  0  0  0  0  0  0
    3.0726   10.1043   19.8522 O   0  0  0  0  0  0  0  0  0  0  0  0
    5.5057    7.1196   21.1155 C   0  0  0  0  0  0  0  0  0  0  0  0
    7.0367   11.0229   21.9948 O   0  0  0  0  0  0  0  0  0  0  0  0
  1  8  4  0
  1 12  4  0
  2  9  1  0
  2 11  4  0
  2 25  4  0
  3 12  4  0
  3 14  1  0
  3 23  4  0
  4 13  4  0
  4 21  4  0
  4 24  1  0
  5  8  4  0
  5 23  4  0
  6 18  2  0
  7 15  4  0
  7 16  1  0
  7 27  4  0
  8 18  1  0
 10 18  1  0
 10 20  1  0
 11 15  4  0
 11 26  1  0
 13 22  4  0
 16 19  1  0
 16 20  2  0
 17 19  4  0
 17 21  4  0
 19 22  4  0
 20 28  1  0
 25 27  4  0
M  END
$$$$

 Created by Python create_sdf_string function

 28 30  0  0  0  0  0  0  0  0999 V2000
   11.4592   11.2893   18.7941 C   0  0  0  0  0  0  0  0  0  0  0  0
    3.4202    7.9009   20.3866 C   0  0  0  0  0  0  0  0  0  0  0  0
   13.5280   10.3522   19.3586 C   0  0  0  0  0  0  0  0  0  0  0  0
    9.6923    5.6468   22.7891 C   0  0  0  0  0  0  0  0  0  0  0  0
   11.7756   10.2554   20.8841 N   0  0  0  0  0  0  0  0  0  0  0  0
    8.9876   11.9370   19.8757 O   0  0  0  0  0  0  0  0  0  0  0  0
    6.0167    8.4478   21.1089 C   0  0  0  0  0  0  0  0  0  0  0  0
   11.0002   10.8890   20.0262 C   0  0  0  0  0  0  0  0  0  0  0  0
    2.1721    7.7393   20.0315 O   0  0  0  0  0  0  0  0  0  0  0  0
    9.1107   10.3880   21.3769 N   0  0  0  0  0  0  0  0  0  0  0  0
    3.9102    9.2008   20.3124 C   0  0  0  0  0  0  0  0  0  0  0  0
   12.7292   10.9960   18.4597 C   0  0  0  0  0  0  0  0  0  0  0  0
    9.3798    6.6793   23.6625 C   0  0  0  0  0  0  0  0  0  0  0  0
   14.7425   10.0739   19.0802 O   0  0  0  0  0  0  0  0  0  0  0  0
    5.1894    9.4673   20.7118 C   0  0  0  0  0  0  0  0  0  0  0  0
    7.3773    8.8224   21.4870 C   0  0  0  0  0  0  0  0  0  0  0  0
    8.4391    6.6439   21.0235 C   0  0  0  0  0  0  0  0  0  0  0  0
    9.6494   11.1353   20.4167 C   0  0  0  0  0  0  0  0  0  0  0  0
    8.1431    7.6829   21.9046 C   0  0  0  0  0  0  0  0  0  0  0  0
    7.7796   10.1314   21.5115 N   0  0  0  0  0  0  0  0  0  0  0  0
    9.2768    5.6183   21.4437 C   0  0  0  0  0  0  0  0  0  0  0  0
    8.6315    7.7322   23.1768 C   0  0  0  0  0  0  0  0  0  0  0  0
   13.0537    9.9821   20.5781 C   0  0  0  0  0  0  0  0  0  0  0  0
   10.3850    4.6575   23.2386 O   0  0  0  0  0  0  0  0  0  0  0  0
    4.2069    6.8450   20.7994 C   0  0  0  0  0  0  0  0  0  0  0  0
    3.0726   10.1043   19.8522 O   0  0  0  0  0  0  0  0  0  0  0  0
    5.5057    7.1196   21.1155 C   0  0  0  0  0  0  0  0  0  0  0  0
    7.0367   11.0229   21.9948 O   0  0  0  0  0  0  0  0  0  0  0  0
  1  8  4  0
  1 12  4  0
  2  9  1  0
  2 11  4  0
  2 25  4  0
  3 12  4  0
  3 14  1  0
  3 23  4  0
  4 13  4  0
  4 21  4  0
  4 24  1  0
  5  8  4  0
  5 23  4  0
  6 18  2  0
  7 15  4  0
  7 16  1  0
  7 27  4  0
  8 18  1  0
 10 18  1  0
 10 20  1  0
 11 15  4  0
 11 26  1  0
 13 22  4  0
 16 19  1  0
 16 20  2  0
 17 19  4  0
 17 21  4  0
 19 22  4  0
 20 28  1  0
 25 27  4  0
M  END
$$$$

 Created by Python create_sdf_string function

 28 30  0  0  0  0  0  0  0  0999 V2000
   11.4592   11.2893   18.7941 C   0  0  0  0  0  0  0  0  0  0  0  0
    3.4202    7.9009   20.3866 C   0  0  0  0  0  0  0  0  0  0  0  0
   13.5280   10.3522   19.3586 C   0  0  0  0  0  0  0  0  0  0  0  0
    9.6923    5.6468   22.7891 C   0  0  0  0  0  0  0  0  0  0  0  0
   11.7756   10.2554   20.8841 N   0  0  0  0  0  0  0  0  0  0  0  0
    8.9876   11.9370   19.8757 O   0  0  0  0  0  0  0  0  0  0  0  0
    6.0167    8.4478   21.1089 C   0  0  0  0  0  0  0  0  0  0  0  0
   11.0002   10.8890   20.0262 C   0  0  0  0  0  0  0  0  0  0  0  0
    2.1721    7.7393   20.0315 O   0  0  0  0  0  0  0  0  0  0  0  0
    9.1107   10.3880   21.3769 N   0  0  0  0  0  0  0  0  0  0  0  0
    3.9102    9.2008   20.3124 C   0  0  0  0  0  0  0  0  0  0  0  0
   12.7292   10.9960   18.4597 C   0  0  0  0  0  0  0  0  0  0  0  0
    9.3798    6.6793   23.6625 C   0  0  0  0  0  0  0  0  0  0  0  0
   14.7425   10.0739   19.0802 O   0  0  0  0  0  0  0  0  0  0  0  0
    5.1894    9.4673   20.7118 C   0  0  0  0  0  0  0  0  0  0  0  0
    7.3773    8.8224   21.4870 C   0  0  0  0  0  0  0  0  0  0  0  0
    8.4391    6.6439   21.0235 C   0  0  0  0  0  0  0  0  0  0  0  0
    9.6494   11.1353   20.4167 C   0  0  0  0  0  0  0  0  0  0  0  0
    8.1431    7.6829   21.9046 C   0  0  0  0  0  0  0  0  0  0  0  0
    7.7796   10.1314   21.5115 N   0  0  0  0  0  0  0  0  0  0  0  0
    9.2768    5.6183   21.4437 C   0  0  0  0  0  0  0  0  0  0  0  0
    8.6315    7.7322   23.1768 C   0  0  0  0  0  0  0  0  0  0  0  0
   13.0537    9.9821   20.5781 C   0  0  0  0  0  0  0  0  0  0  0  0
   10.3850    4.6575   23.2386 O   0  0  0  0  0  0  0  0  0  0  0  0
    4.2069    6.8450   20.7994 C   0  0  0  0  0  0  0  0  0  0  0  0
    3.0726   10.1043   19.8522 O   0  0  0  0  0  0  0  0  0  0  0  0
    5.5057    7.1196   21.1155 C   0  0  0  0  0  0  0  0  0  0  0  0
    7.0367   11.0229   21.9948 O   0  0  0  0  0  0  0  0  0  0  0  0
  1  8  4  0
  1 12  4  0
  2  9  1  0
  2 11  4  0
  2 25  4  0
  3 12  4  0
  3 14  1  0
  3 23  4  0
  4 13  4  0
  4 21  4  0
  4 24  1  0
  5  8  4  0
  5 23  4  0
  6 18  2  0
  7 15  4  0
  7 16  1  0
  7 27  4  0
  8 18  1  0
 10 18  1  0
 10 20  1  0
 11 15  4  0
 11 26  1  0
 13 22  4  0
 16 19  1  0
 16 20  2  0
 17 19  4  0
 17 21  4  0
 19 22  4  0
 20 28  1  0
 25 27  4  0
M  END
$$$$

 Created by Python create_sdf_string function

 28 30  0  0  0  0  0  0  0  0999 V2000
   11.4592   11.2893   18.7941 C   0  0  0  0  0  0  0  0  0  0  0  0
    3.4202    7.9009   20.3866 C   0  0  0  0  0  0  0  0  0  0  0  0
   13.5280   10.3522   19.3586 C   0  0  0  0  0  0  0  0  0  0  0  0
    9.6923    5.6468   22.7891 C   0  0  0  0  0  0  0  0  0  0  0  0
   11.7756   10.2554   20.8841 N   0  0  0  0  0  0  0  0  0  0  0  0
    8.9876   11.9370   19.8757 O   0  0  0  0  0  0  0  0  0  0  0  0
    6.0167    8.4478   21.1089 C   0  0  0  0  0  0  0  0  0  0  0  0
   11.0002   10.8890   20.0262 C   0  0  0  0  0  0  0  0  0  0  0  0
    2.1721    7.7393   20.0315 O   0  0  0  0  0  0  0  0  0  0  0  0
    9.1107   10.3880   21.3769 N   0  0  0  0  0  0  0  0  0  0  0  0
    3.9102    9.2008   20.3124 C   0  0  0  0  0  0  0  0  0  0  0  0
   12.7292   10.9960   18.4597 C   0  0  0  0  0  0  0  0  0  0  0  0
    9.3798    6.6793   23.6625 C   0  0  0  0  0  0  0  0  0  0  0  0
   14.7425   10.0739   19.0802 O   0  0  0  0  0  0  0  0  0  0  0  0
    5.1894    9.4673   20.7118 C   0  0  0  0  0  0  0  0  0  0  0  0
    7.3773    8.8224   21.4870 C   0  0  0  0  0  0  0  0  0  0  0  0
    8.4391    6.6439   21.0235 C   0  0  0  0  0  0  0  0  0  0  0  0
    9.6494   11.1353   20.4167 C   0  0  0  0  0  0  0  0  0  0  0  0
    8.1431    7.6829   21.9046 C   0  0  0  0  0  0  0  0  0  0  0  0
    7.7796   10.1314   21.5115 N   0  0  0  0  0  0  0  0  0  0  0  0
    9.2768    5.6183   21.4437 C   0  0  0  0  0  0  0  0  0  0  0  0
    8.6315    7.7322   23.1768 C   0  0  0  0  0  0  0  0  0  0  0  0
   13.0537    9.9821   20.5781 C   0  0  0  0  0  0  0  0  0  0  0  0
   10.3850    4.6575   23.2386 O   0  0  0  0  0  0  0  0  0  0  0  0
    4.2069    6.8450   20.7994 C   0  0  0  0  0  0  0  0  0  0  0  0
    3.0726   10.1043   19.8522 O   0  0  0  0  0  0  0  0  0  0  0  0
    5.5057    7.1196   21.1155 C   0  0  0  0  0  0  0  0  0  0  0  0
    7.0367   11.0229   21.9948 O   0  0  0  0  0  0  0  0  0  0  0  0
  1  8  4  0
  1 12  4  0
  2  9  1  0
  2 11  4  0
  2 25  4  0
  3 12  4  0
  3 14  1  0
  3 23  4  0
  4 13  4  0
  4 21  4  0
  4 24  1  0
  5  8  4  0
  5 23  4  0
  6 18  2  0
  7 15  4  0
  7 16  1  0
  7 27  4  0
  8 18  1  0
 10 18  1  0
 10 20  1  0
 11 15  4  0
 11 26  1  0
 13 22  4  0
 16 19  1  0
 16 20  2  0
 17 19  4  0
 17 21  4  0
 19 22  4  0
 20 28  1  0
 25 27  4  0
M  END
$$$$

 Created by Python create_sdf_string function

 28 30  0  0  0  0  0  0  0  0999 V2000
   11.4592   11.2893   18.7941 C   0  0  0  0  0  0  0  0  0  0  0  0
    3.4202    7.9009   20.3866 C   0  0  0  0  0  0  0  0  0  0  0  0
   13.5280   10.3522   19.3586 C   0  0  0  0  0  0  0  0  0  0  0  0
    9.6923    5.6468   22.7891 C   0  0  0  0  0  0  0  0  0  0  0  0
   11.7756   10.2554   20.8841 N   0  0  0  0  0  0  0  0  0  0  0  0
    8.9876   11.9370   19.8757 O   0  0  0  0  0  0  0  0  0  0  0  0
    6.0167    8.4478   21.1089 C   0  0  0  0  0  0  0  0  0  0  0  0
   11.0002   10.8890   20.0262 C   0  0  0  0  0  0  0  0  0  0  0  0
    2.1721    7.7393   20.0315 O   0  0  0  0  0  0  0  0  0  0  0  0
    9.1107   10.3880   21.3769 N   0  0  0  0  0  0  0  0  0  0  0  0
    3.9102    9.2008   20.3124 C   0  0  0  0  0  0  0  0  0  0  0  0
   12.7292   10.9960   18.4597 C   0  0  0  0  0  0  0  0  0  0  0  0
    9.3798    6.6793   23.6625 C   0  0  0  0  0  0  0  0  0  0  0  0
   14.7425   10.0739   19.0802 O   0  0  0  0  0  0  0  0  0  0  0  0
    5.1894    9.4673   20.7118 C   0  0  0  0  0  0  0  0  0  0  0  0
    7.3773    8.8224   21.4870 C   0  0  0  0  0  0  0  0  0  0  0  0
    8.4391    6.6439   21.0235 C   0  0  0  0  0  0  0  0  0  0  0  0
    9.6494   11.1353   20.4167 C   0  0  0  0  0  0  0  0  0  0  0  0
    8.1431    7.6829   21.9046 C   0  0  0  0  0  0  0  0  0  0  0  0
    7.7796   10.1314   21.5115 N   0  0  0  0  0  0  0  0  0  0  0  0
    9.2768    5.6183   21.4437 C   0  0  0  0  0  0  0  0  0  0  0  0
    8.6315    7.7322   23.1768 C   0  0  0  0  0  0  0  0  0  0  0  0
   13.0537    9.9821   20.5781 C   0  0  0  0  0  0  0  0  0  0  0  0
   10.3850    4.6575   23.2386 O   0  0  0  0  0  0  0  0  0  0  0  0
    4.2069    6.8450   20.7994 C   0  0  0  0  0  0  0  0  0  0  0  0
    3.0726   10.1043   19.8522 O   0  0  0  0  0  0  0  0  0  0  0  0
    5.5057    7.1196   21.1155 C   0  0  0  0  0  0  0  0  0  0  0  0
    7.0367   11.0229   21.9948 O   0  0  0  0  0  0  0  0  0  0  0  0
  1  8  4  0
  1 12  4  0
  2  9  1  0
  2 11  4  0
  2 25  4  0
  3 12  4  0
  3 14  1  0
  3 23  4  0
  4 13  4  0
  4 21  4  0
  4 24  1  0
  5  8  4  0
  5 23  4  0
  6 18  2  0
  7 15  4  0
  7 16  1  0
  7 27  4  0
  8 18  1  0
 10 18  1  0
 10 20  1  0
 11 15  4  0
 11 26  1  0
 13 22  4  0
 16 19  1  0
 16 20  2  0
 17 19  4  0
 17 21  4  0
 19 22  4  0
 20 28  1  0
 25 27  4  0
M  END
$$$$

 Created by Python create_sdf_string function

 28 30  0  0  0  0  0  0  0  0999 V2000
   11.4592   11.2893   18.7941 C   0  0  0  0  0  0  0  0  0  0  0  0
    3.4202    7.9009   20.3866 C   0  0  0  0  0  0  0  0  0  0  0  0
   13.5280   10.3522   19.3586 C   0  0  0  0  0  0  0  0  0  0  0  0
    9.6923    5.6468   22.7891 C   0  0  0  0  0  0  0  0  0  0  0  0
   11.7756   10.2554   20.8841 N   0  0  0  0  0  0  0  0  0  0  0  0
    8.9876   11.9370   19.8757 O   0  0  0  0  0  0  0  0  0  0  0  0
    6.0167    8.4478   21.1089 C   0  0  0  0  0  0  0  0  0  0  0  0
   11.0002   10.8890   20.0262 C   0  0  0  0  0  0  0  0  0  0  0  0
    2.1721    7.7393   20.0315 O   0  0  0  0  0  0  0  0  0  0  0  0
    9.1107   10.3880   21.3769 N   0  0  0  0  0  0  0  0  0  0  0  0
    3.9102    9.2008   20.3124 C   0  0  0  0  0  0  0  0  0  0  0  0
   12.7292   10.9960   18.4597 C   0  0  0  0  0  0  0  0  0  0  0  0
    9.3798    6.6793   23.6625 C   0  0  0  0  0  0  0  0  0  0  0  0
   14.7425   10.0739   19.0802 O   0  0  0  0  0  0  0  0  0  0  0  0
    5.1894    9.4673   20.7118 C   0  0  0  0  0  0  0  0  0  0  0  0
    7.3773    8.8224   21.4870 C   0  0  0  0  0  0  0  0  0  0  0  0
    8.4391    6.6439   21.0235 C   0  0  0  0  0  0  0  0  0  0  0  0
    9.6494   11.1353   20.4167 C   0  0  0  0  0  0  0  0  0  0  0  0
    8.1431    7.6829   21.9046 C   0  0  0  0  0  0  0  0  0  0  0  0
    7.7796   10.1314   21.5115 N   0  0  0  0  0  0  0  0  0  0  0  0
    9.2768    5.6183   21.4437 C   0  0  0  0  0  0  0  0  0  0  0  0
    8.6315    7.7322   23.1768 C   0  0  0  0  0  0  0  0  0  0  0  0
   13.0537    9.9821   20.5781 C   0  0  0  0  0  0  0  0  0  0  0  0
   10.3850    4.6575   23.2386 O   0  0  0  0  0  0  0  0  0  0  0  0
    4.2069    6.8450   20.7994 C   0  0  0  0  0  0  0  0  0  0  0  0
    3.0726   10.1043   19.8522 O   0  0  0  0  0  0  0  0  0  0  0  0
    5.5057    7.1196   21.1155 C   0  0  0  0  0  0  0  0  0  0  0  0
    7.0367   11.0229   21.9948 O   0  0  0  0  0  0  0  0  0  0  0  0
  1  8  4  0
  1 12  4  0
  2  9  1  0
  2 11  4  0
  2 25  4  0
  3 12  4  0
  3 14  1  0
  3 23  4  0
  4 13  4  0
  4 21  4  0
  4 24  1  0
  5  8  4  0
  5 23  4  0
  6 18  2  0
  7 15  4  0
  7 16  1  0
  7 27  4  0
  8 18  1  0
 10 18  1  0
 10 20  1  0
 11 15  4  0
 11 26  1  0
 13 22  4  0
 16 19  1  0
 16 20  2  0
 17 19  4  0
 17 21  4  0
 19 22  4  0
 20 28  1  0
 25 27  4  0
M  END
$$$$

 Created by Python create_sdf_string function

 28 30  0  0  0  0  0  0  0  0999 V2000
   11.4592   11.2893   18.7941 C   0  0  0  0  0  0  0  0  0  0  0  0
    3.4202    7.9009   20.3866 C   0  0  0  0  0  0  0  0  0  0  0  0
   13.5280   10.3522   19.3586 C   0  0  0  0  0  0  0  0  0  0  0  0
    9.6923    5.6468   22.7891 C   0  0  0  0  0  0  0  0  0  0  0  0
   11.7756   10.2554   20.8841 N   0  0  0  0  0  0  0  0  0  0  0  0
    8.9876   11.9370   19.8757 O   0  0  0  0  0  0  0  0  0  0  0  0
    6.0167    8.4478   21.1089 C   0  0  0  0  0  0  0  0  0  0  0  0
   11.0002   10.8890   20.0262 C   0  0  0  0  0  0  0  0  0  0  0  0
    2.1721    7.7393   20.0315 O   0  0  0  0  0  0  0  0  0  0  0  0
    9.1107   10.3880   21.3769 N   0  0  0  0  0  0  0  0  0  0  0  0
    3.9102    9.2008   20.3124 C   0  0  0  0  0  0  0  0  0  0  0  0
   12.7292   10.9960   18.4597 C   0  0  0  0  0  0  0  0  0  0  0  0
    9.3798    6.6793   23.6625 C   0  0  0  0  0  0  0  0  0  0  0  0
   14.7425   10.0739   19.0802 O   0  0  0  0  0  0  0  0  0  0  0  0
    5.1894    9.4673   20.7118 C   0  0  0  0  0  0  0  0  0  0  0  0
    7.3773    8.8224   21.4870 C   0  0  0  0  0  0  0  0  0  0  0  0
    8.4391    6.6439   21.0235 C   0  0  0  0  0  0  0  0  0  0  0  0
    9.6494   11.1353   20.4167 C   0  0  0  0  0  0  0  0  0  0  0  0
    8.1431    7.6829   21.9046 C   0  0  0  0  0  0  0  0  0  0  0  0
    7.7796   10.1314   21.5115 N   0  0  0  0  0  0  0  0  0  0  0  0
    9.2768    5.6183   21.4437 C   0  0  0  0  0  0  0  0  0  0  0  0
    8.6315    7.7322   23.1768 C   0  0  0  0  0  0  0  0  0  0  0  0
   13.0537    9.9821   20.5781 C   0  0  0  0  0  0  0  0  0  0  0  0
   10.3850    4.6575   23.2386 O   0  0  0  0  0  0  0  0  0  0  0  0
    4.2069    6.8450   20.7994 C   0  0  0  0  0  0  0  0  0  0  0  0
    3.0726   10.1043   19.8522 O   0  0  0  0  0  0  0  0  0  0  0  0
    5.5057    7.1196   21.1155 C   0  0  0  0  0  0  0  0  0  0  0  0
    7.0367   11.0229   21.9948 O   0  0  0  0  0  0  0  0  0  0  0  0
  1  8  4  0
  1 12  4  0
  2  9  1  0
  2 11  4  0
  2 25  4  0
  3 12  4  0
  3 14  1  0
  3 23  4  0
  4 13  4  0
  4 21  4  0
  4 24  1  0
  5  8  4  0
  5 23  4  0
  6 18  2  0
  7 15  4  0
  7 16  1  0
  7 27  4  0
  8 18  1  0
 10 18  1  0
 10 20  1  0
 11 15  4  0
 11 26  1  0
 13 22  4  0
 16 19  1  0
 16 20  2  0
 17 19  4  0
 17 21  4  0
 19 22  4  0
 20 28  1  0
 25 27  4  0
M  END
$$$$

 Created by Python create_sdf_string function

 28 30  0  0  0  0  0  0  0  0999 V2000
   11.4592   11.2893   18.7941 C   0  0  0  0  0  0  0  0  0  0  0  0
    3.4202    7.9009   20.3866 C   0  0  0  0  0  0  0  0  0  0  0  0
   13.5280   10.3522   19.3586 C   0  0  0  0  0  0  0  0  0  0  0  0
    9.6923    5.6468   22.7891 C   0  0  0  0  0  0  0  0  0  0  0  0
   11.7756   10.2554   20.8841 N   0  0  0  0  0  0  0  0  0  0  0  0
    8.9876   11.9370   19.8757 O   0  0  0  0  0  0  0  0  0  0  0  0
    6.0167    8.4478   21.1089 C   0  0  0  0  0  0  0  0  0  0  0  0
   11.0002   10.8890   20.0262 C   0  0  0  0  0  0  0  0  0  0  0  0
    2.1721    7.7393   20.0315 O   0  0  0  0  0  0  0  0  0  0  0  0
    9.1107   10.3880   21.3769 N   0  0  0  0  0  0  0  0  0  0  0  0
    3.9102    9.2008   20.3124 C   0  0  0  0  0  0  0  0  0  0  0  0
   12.7292   10.9960   18.4597 C   0  0  0  0  0  0  0  0  0  0  0  0
    9.3798    6.6793   23.6625 C   0  0  0  0  0  0  0  0  0  0  0  0
   14.7425   10.0739   19.0802 O   0  0  0  0  0  0  0  0  0  0  0  0
    5.1894    9.4673   20.7118 C   0  0  0  0  0  0  0  0  0  0  0  0
    7.3773    8.8224   21.4870 C   0  0  0  0  0  0  0  0  0  0  0  0
    8.4391    6.6439   21.0235 C   0  0  0  0  0  0  0  0  0  0  0  0
    9.6494   11.1353   20.4167 C   0  0  0  0  0  0  0  0  0  0  0  0
    8.1431    7.6829   21.9046 C   0  0  0  0  0  0  0  0  0  0  0  0
    7.7796   10.1314   21.5115 N   0  0  0  0  0  0  0  0  0  0  0  0
    9.2768    5.6183   21.4437 C   0  0  0  0  0  0  0  0  0  0  0  0
    8.6315    7.7322   23.1768 C   0  0  0  0  0  0  0  0  0  0  0  0
   13.0537    9.9821   20.5781 C   0  0  0  0  0  0  0  0  0  0  0  0
   10.3850    4.6575   23.2386 O   0  0  0  0  0  0  0  0  0  0  0  0
    4.2069    6.8450   20.7994 C   0  0  0  0  0  0  0  0  0  0  0  0
    3.0726   10.1043   19.8522 O   0  0  0  0  0  0  0  0  0  0  0  0
    5.5057    7.1196   21.1155 C   0  0  0  0  0  0  0  0  0  0  0  0
    7.0367   11.0229   21.9948 O   0  0  0  0  0  0  0  0  0  0  0  0
  1  8  4  0
  1 12  4  0
  2  9  1  0
  2 11  4  0
  2 25  4  0
  3 12  4  0
  3 14  1  0
  3 23  4  0
  4 13  4  0
  4 21  4  0
  4 24  1  0
  5  8  4  0
  5 23  4  0
  6 18  2  0
  7 15  4  0
  7 16  1  0
  7 27  4  0
  8 18  1  0
 10 18  1  0
 10 20  1  0
 11 15  4  0
 11 26  1  0
 13 22  4  0
 16 19  1  0
 16 20  2  0
 17 19  4  0
 17 21  4  0
 19 22  4  0
 20 28  1  0
 25 27  4  0
M  END
$$$$

 Created by Python create_sdf_string function

 28 30  0  0  0  0  0  0  0  0999 V2000
   11.4592   11.2893   18.7941 C   0  0  0  0  0  0  0  0  0  0  0  0
    3.4202    7.9009   20.3866 C   0  0  0  0  0  0  0  0  0  0  0  0
   13.5280   10.3522   19.3586 C   0  0  0  0  0  0  0  0  0  0  0  0
    9.6923    5.6468   22.7891 C   0  0  0  0  0  0  0  0  0  0  0  0
   11.7756   10.2554   20.8841 N   0  0  0  0  0  0  0  0  0  0  0  0
    8.9876   11.9370   19.8757 O   0  0  0  0  0  0  0  0  0  0  0  0
    6.0167    8.4478   21.1089 C   0  0  0  0  0  0  0  0  0  0  0  0
   11.0002   10.8890   20.0262 C   0  0  0  0  0  0  0  0  0  0  0  0
    2.1721    7.7393   20.0315 O   0  0  0  0  0  0  0  0  0  0  0  0
    9.1107   10.3880   21.3769 N   0  0  0  0  0  0  0  0  0  0  0  0
    3.9102    9.2008   20.3124 C   0  0  0  0  0  0  0  0  0  0  0  0
   12.7292   10.9960   18.4597 C   0  0  0  0  0  0  0  0  0  0  0  0
    9.3798    6.6793   23.6625 C   0  0  0  0  0  0  0  0  0  0  0  0
   14.7425   10.0739   19.0802 O   0  0  0  0  0  0  0  0  0  0  0  0
    5.1894    9.4673   20.7118 C   0  0  0  0  0  0  0  0  0  0  0  0
    7.3773    8.8224   21.4870 C   0  0  0  0  0  0  0  0  0  0  0  0
    8.4391    6.6439   21.0235 C   0  0  0  0  0  0  0  0  0  0  0  0
    9.6494   11.1353   20.4167 C   0  0  0  0  0  0  0  0  0  0  0  0
    8.1431    7.6829   21.9046 C   0  0  0  0  0  0  0  0  0  0  0  0
    7.7796   10.1314   21.5115 N   0  0  0  0  0  0  0  0  0  0  0  0
    9.2768    5.6183   21.4437 C   0  0  0  0  0  0  0  0  0  0  0  0
    8.6315    7.7322   23.1768 C   0  0  0  0  0  0  0  0  0  0  0  0
   13.0537    9.9821   20.5781 C   0  0  0  0  0  0  0  0  0  0  0  0
   10.3850    4.6575   23.2386 O   0  0  0  0  0  0  0  0  0  0  0  0
    4.2069    6.8450   20.7994 C   0  0  0  0  0  0  0  0  0  0  0  0
    3.0726   10.1043   19.8522 O   0  0  0  0  0  0  0  0  0  0  0  0
    5.5057    7.1196   21.1155 C   0  0  0  0  0  0  0  0  0  0  0  0
    7.0367   11.0229   21.9948 O   0  0  0  0  0  0  0  0  0  0  0  0
  1  8  4  0
  1 12  4  0
  2  9  1  0
  2 11  4  0
  2 25  4  0
  3 12  4  0
  3 14  1  0
  3 23  4  0
  4 13  4  0
  4 21  4  0
  4 24  1  0
  5  8  4  0
  5 23  4  0
  6 18  2  0
  7 15  4  0
  7 16  1  0
  7 27  4  0
  8 18  1  0
 10 18  1  0
 10 20  1  0
 11 15  4  0
 11 26  1  0
 13 22  4  0
 16 19  1  0
 16 20  2  0
 17 19  4  0
 17 21  4  0
 19 22  4  0
 20 28  1  0
 25 27  4  0
M  END
$$$$

 Created by Python create_sdf_string function

 28 30  0  0  0  0  0  0  0  0999 V2000
   11.4592   11.2893   18.7941 C   0  0  0  0  0  0  0  0  0  0  0  0
    3.4202    7.9009   20.3866 C   0  0  0  0  0  0  0  0  0  0  0  0
   13.5280   10.3522   19.3586 C   0  0  0  0  0  0  0  0  0  0  0  0
    9.6923    5.6468   22.7891 C   0  0  0  0  0  0  0  0  0  0  0  0
   11.7756   10.2554   20.8841 N   0  0  0  0  0  0  0  0  0  0  0  0
    8.9876   11.9370   19.8757 O   0  0  0  0  0  0  0  0  0  0  0  0
    6.0167    8.4478   21.1089 C   0  0  0  0  0  0  0  0  0  0  0  0
   11.0002   10.8890   20.0262 C   0  0  0  0  0  0  0  0  0  0  0  0
    2.1721    7.7393   20.0315 O   0  0  0  0  0  0  0  0  0  0  0  0
    9.1107   10.3880   21.3769 N   0  0  0  0  0  0  0  0  0  0  0  0
    3.9102    9.2008   20.3124 C   0  0  0  0  0  0  0  0  0  0  0  0
   12.7292   10.9960   18.4597 C   0  0  0  0  0  0  0  0  0  0  0  0
    9.3798    6.6793   23.6625 C   0  0  0  0  0  0  0  0  0  0  0  0
   14.7425   10.0739   19.0802 O   0  0  0  0  0  0  0  0  0  0  0  0
    5.1894    9.4673   20.7118 C   0  0  0  0  0  0  0  0  0  0  0  0
    7.3773    8.8224   21.4870 C   0  0  0  0  0  0  0  0  0  0  0  0
    8.4391    6.6439   21.0235 C   0  0  0  0  0  0  0  0  0  0  0  0
    9.6494   11.1353   20.4167 C   0  0  0  0  0  0  0  0  0  0  0  0
    8.1431    7.6829   21.9046 C   0  0  0  0  0  0  0  0  0  0  0  0
    7.7796   10.1314   21.5115 N   0  0  0  0  0  0  0  0  0  0  0  0
    9.2768    5.6183   21.4437 C   0  0  0  0  0  0  0  0  0  0  0  0
    8.6315    7.7322   23.1768 C   0  0  0  0  0  0  0  0  0  0  0  0
   13.0537    9.9821   20.5781 C   0  0  0  0  0  0  0  0  0  0  0  0
   10.3850    4.6575   23.2386 O   0  0  0  0  0  0  0  0  0  0  0  0
    4.2069    6.8450   20.7994 C   0  0  0  0  0  0  0  0  0  0  0  0
    3.0726   10.1043   19.8522 O   0  0  0  0  0  0  0  0  0  0  0  0
    5.5057    7.1196   21.1155 C   0  0  0  0  0  0  0  0  0  0  0  0
    7.0367   11.0229   21.9948 O   0  0  0  0  0  0  0  0  0  0  0  0
  1  8  4  0
  1 12  4  0
  2  9  1  0
  2 11  4  0
  2 25  4  0
  3 12  4  0
  3 14  1  0
  3 23  4  0
  4 13  4  0
  4 21  4  0
  4 24  1  0
  5  8  4  0
  5 23  4  0
  6 18  2  0
  7 15  4  0
  7 16  1  0
  7 27  4  0
  8 18  1  0
 10 18  1  0
 10 20  1  0
 11 15  4  0
 11 26  1  0
 13 22  4  0
 16 19  1  0
 16 20  2  0
 17 19  4  0
 17 21  4  0
 19 22  4  0
 20 28  1  0
 25 27  4  0
M  END
$$$$

 Created by Python create_sdf_string function

 28 30  0  0  0  0  0  0  0  0999 V2000
   11.4592   11.2893   18.7941 C   0  0  0  0  0  0  0  0  0  0  0  0
    3.4202    7.9009   20.3866 C   0  0  0  0  0  0  0  0  0  0  0  0
   13.5280   10.3522   19.3586 C   0  0  0  0  0  0  0  0  0  0  0  0
    9.6923    5.6468   22.7891 C   0  0  0  0  0  0  0  0  0  0  0  0
   11.7756   10.2554   20.8841 N   0  0  0  0  0  0  0  0  0  0  0  0
    8.9876   11.9370   19.8757 O   0  0  0  0  0  0  0  0  0  0  0  0
    6.0167    8.4478   21.1089 C   0  0  0  0  0  0  0  0  0  0  0  0
   11.0002   10.8890   20.0262 C   0  0  0  0  0  0  0  0  0  0  0  0
    2.1721    7.7393   20.0315 O   0  0  0  0  0  0  0  0  0  0  0  0
    9.1107   10.3880   21.3769 N   0  0  0  0  0  0  0  0  0  0  0  0
    3.9102    9.2008   20.3124 C   0  0  0  0  0  0  0  0  0  0  0  0
   12.7292   10.9960   18.4597 C   0  0  0  0  0  0  0  0  0  0  0  0
    9.3798    6.6793   23.6625 C   0  0  0  0  0  0  0  0  0  0  0  0
   14.7425   10.0739   19.0802 O   0  0  0  0  0  0  0  0  0  0  0  0
    5.1894    9.4673   20.7118 C   0  0  0  0  0  0  0  0  0  0  0  0
    7.3773    8.8224   21.4870 C   0  0  0  0  0  0  0  0  0  0  0  0
    8.4391    6.6439   21.0235 C   0  0  0  0  0  0  0  0  0  0  0  0
    9.6494   11.1353   20.4167 C   0  0  0  0  0  0  0  0  0  0  0  0
    8.1431    7.6829   21.9046 C   0  0  0  0  0  0  0  0  0  0  0  0
    7.7796   10.1314   21.5115 N   0  0  0  0  0  0  0  0  0  0  0  0
    9.2768    5.6183   21.4437 C   0  0  0  0  0  0  0  0  0  0  0  0
    8.6315    7.7322   23.1768 C   0  0  0  0  0  0  0  0  0  0  0  0
   13.0537    9.9821   20.5781 C   0  0  0  0  0  0  0  0  0  0  0  0
   10.3850    4.6575   23.2386 O   0  0  0  0  0  0  0  0  0  0  0  0
    4.2069    6.8450   20.7994 C   0  0  0  0  0  0  0  0  0  0  0  0
    3.0726   10.1043   19.8522 O   0  0  0  0  0  0  0  0  0  0  0  0
    5.5057    7.1196   21.1155 C   0  0  0  0  0  0  0  0  0  0  0  0
    7.0367   11.0229   21.9948 O   0  0  0  0  0  0  0  0  0  0  0  0
  1  8  4  0
  1 12  4  0
  2  9  1  0
  2 11  4  0
  2 25  4  0
  3 12  4  0
  3 14  1  0
  3 23  4  0
  4 13  4  0
  4 21  4  0
  4 24  1  0
  5  8  4  0
  5 23  4  0
  6 18  2  0
  7 15  4  0
  7 16  1  0
  7 27  4  0
  8 18  1  0
 10 18  1  0
 10 20  1  0
 11 15  4  0
 11 26  1  0
 13 22  4  0
 16 19  1  0
 16 20  2  0
 17 19  4  0
 17 21  4  0
 19 22  4  0
 20 28  1  0
 25 27  4  0
M  END
$$$$

 Created by Python create_sdf_string function

 28 30  0  0  0  0  0  0  0  0999 V2000
   11.4592   11.2893   18.7941 C   0  0  0  0  0  0  0  0  0  0  0  0
    3.4202    7.9009   20.3866 C   0  0  0  0  0  0  0  0  0  0  0  0
   13.5280   10.3522   19.3586 C   0  0  0  0  0  0  0  0  0  0  0  0
    9.6923    5.6468   22.7891 C   0  0  0  0  0  0  0  0  0  0  0  0
   11.7756   10.2554   20.8841 N   0  0  0  0  0  0  0  0  0  0  0  0
    8.9876   11.9370   19.8757 O   0  0  0  0  0  0  0  0  0  0  0  0
    6.0167    8.4478   21.1089 C   0  0  0  0  0  0  0  0  0  0  0  0
   11.0002   10.8890   20.0262 C   0  0  0  0  0  0  0  0  0  0  0  0
    2.1721    7.7393   20.0315 O   0  0  0  0  0  0  0  0  0  0  0  0
    9.1107   10.3880   21.3769 N   0  0  0  0  0  0  0  0  0  0  0  0
    3.9102    9.2008   20.3124 C   0  0  0  0  0  0  0  0  0  0  0  0
   12.7292   10.9960   18.4597 C   0  0  0  0  0  0  0  0  0  0  0  0
    9.3798    6.6793   23.6625 C   0  0  0  0  0  0  0  0  0  0  0  0
   14.7425   10.0739   19.0802 O   0  0  0  0  0  0  0  0  0  0  0  0
    5.1894    9.4673   20.7118 C   0  0  0  0  0  0  0  0  0  0  0  0
    7.3773    8.8224   21.4870 C   0  0  0  0  0  0  0  0  0  0  0  0
    8.4391    6.6439   21.0235 C   0  0  0  0  0  0  0  0  0  0  0  0
    9.6494   11.1353   20.4167 C   0  0  0  0  0  0  0  0  0  0  0  0
    8.1431    7.6829   21.9046 C   0  0  0  0  0  0  0  0  0  0  0  0
    7.7796   10.1314   21.5115 N   0  0  0  0  0  0  0  0  0  0  0  0
    9.2768    5.6183   21.4437 C   0  0  0  0  0  0  0  0  0  0  0  0
    8.6315    7.7322   23.1768 C   0  0  0  0  0  0  0  0  0  0  0  0
   13.0537    9.9821   20.5781 C   0  0  0  0  0  0  0  0  0  0  0  0
   10.3850    4.6575   23.2386 O   0  0  0  0  0  0  0  0  0  0  0  0
    4.2069    6.8450   20.7994 C   0  0  0  0  0  0  0  0  0  0  0  0
    3.0726   10.1043   19.8522 O   0  0  0  0  0  0  0  0  0  0  0  0
    5.5057    7.1196   21.1155 C   0  0  0  0  0  0  0  0  0  0  0  0
    7.0367   11.0229   21.9948 O   0  0  0  0  0  0  0  0  0  0  0  0
  1  8  4  0
  1 12  4  0
  2  9  1  0
  2 11  4  0
  2 25  4  0
  3 12  4  0
  3 14  1  0
  3 23  4  0
  4 13  4  0
  4 21  4  0
  4 24  1  0
  5  8  4  0
  5 23  4  0
  6 18  2  0
  7 15  4  0
  7 16  1  0
  7 27  4  0
  8 18  1  0
 10 18  1  0
 10 20  1  0
 11 15  4  0
 11 26  1  0
 13 22  4  0
 16 19  1  0
 16 20  2  0
 17 19  4  0
 17 21  4  0
 19 22  4  0
 20 28  1  0
 25 27  4  0
M  END
$$$$

 Created by Python create_sdf_string function

 28 30  0  0  0  0  0  0  0  0999 V2000
   11.4592   11.2893   18.7941 C   0  0  0  0  0  0  0  0  0  0  0  0
    3.4202    7.9009   20.3866 C   0  0  0  0  0  0  0  0  0  0  0  0
   13.5280   10.3522   19.3586 C   0  0  0  0  0  0  0  0  0  0  0  0
    9.6923    5.6468   22.7891 C   0  0  0  0  0  0  0  0  0  0  0  0
   11.7756   10.2554   20.8841 N   0  0  0  0  0  0  0  0  0  0  0  0
    8.9876   11.9370   19.8757 O   0  0  0  0  0  0  0  0  0  0  0  0
    6.0167    8.4478   21.1089 C   0  0  0  0  0  0  0  0  0  0  0  0
   11.0002   10.8890   20.0262 C   0  0  0  0  0  0  0  0  0  0  0  0
    2.1721    7.7393   20.0315 O   0  0  0  0  0  0  0  0  0  0  0  0
    9.1107   10.3880   21.3769 N   0  0  0  0  0  0  0  0  0  0  0  0
    3.9102    9.2008   20.3124 C   0  0  0  0  0  0  0  0  0  0  0  0
   12.7292   10.9960   18.4597 C   0  0  0  0  0  0  0  0  0  0  0  0
    9.3798    6.6793   23.6625 C   0  0  0  0  0  0  0  0  0  0  0  0
   14.7425   10.0739   19.0802 O   0  0  0  0  0  0  0  0  0  0  0  0
    5.1894    9.4673   20.7118 C   0  0  0  0  0  0  0  0  0  0  0  0
    7.3773    8.8224   21.4870 C   0  0  0  0  0  0  0  0  0  0  0  0
    8.4391    6.6439   21.0235 C   0  0  0  0  0  0  0  0  0  0  0  0
    9.6494   11.1353   20.4167 C   0  0  0  0  0  0  0  0  0  0  0  0
    8.1431    7.6829   21.9046 C   0  0  0  0  0  0  0  0  0  0  0  0
    7.7796   10.1314   21.5115 N   0  0  0  0  0  0  0  0  0  0  0  0
    9.2768    5.6183   21.4437 C   0  0  0  0  0  0  0  0  0  0  0  0
    8.6315    7.7322   23.1768 C   0  0  0  0  0  0  0  0  0  0  0  0
   13.0537    9.9821   20.5781 C   0  0  0  0  0  0  0  0  0  0  0  0
   10.3850    4.6575   23.2386 O   0  0  0  0  0  0  0  0  0  0  0  0
    4.2069    6.8450   20.7994 C   0  0  0  0  0  0  0  0  0  0  0  0
    3.0726   10.1043   19.8522 O   0  0  0  0  0  0  0  0  0  0  0  0
    5.5057    7.1196   21.1155 C   0  0  0  0  0  0  0  0  0  0  0  0
    7.0367   11.0229   21.9948 O   0  0  0  0  0  0  0  0  0  0  0  0
  1  8  4  0
  1 12  4  0
  2  9  1  0
  2 11  4  0
  2 25  4  0
  3 12  4  0
  3 14  1  0
  3 23  4  0
  4 13  4  0
  4 21  4  0
  4 24  1  0
  5  8  4  0
  5 23  4  0
  6 18  2  0
  7 15  4  0
  7 16  1  0
  7 27  4  0
  8 18  1  0
 10 18  1  0
 10 20  1  0
 11 15  4  0
 11 26  1  0
 13 22  4  0
 16 19  1  0
 16 20  2  0
 17 19  4  0
 17 21  4  0
 19 22  4  0
 20 28  1  0
 25 27  4  0
M  END
$$$$

 Created by Python create_sdf_string function

 28 30  0  0  0  0  0  0  0  0999 V2000
   11.4592   11.2893   18.7941 C   0  0  0  0  0  0  0  0  0  0  0  0
    3.4202    7.9009   20.3866 C   0  0  0  0  0  0  0  0  0  0  0  0
   13.5280   10.3522   19.3586 C   0  0  0  0  0  0  0  0  0  0  0  0
    9.6923    5.6468   22.7891 C   0  0  0  0  0  0  0  0  0  0  0  0
   11.7756   10.2554   20.8841 N   0  0  0  0  0  0  0  0  0  0  0  0
    8.9876   11.9370   19.8757 O   0  0  0  0  0  0  0  0  0  0  0  0
    6.0167    8.4478   21.1089 C   0  0  0  0  0  0  0  0  0  0  0  0
   11.0002   10.8890   20.0262 C   0  0  0  0  0  0  0  0  0  0  0  0
    2.1721    7.7393   20.0315 O   0  0  0  0  0  0  0  0  0  0  0  0
    9.1107   10.3880   21.3769 N   0  0  0  0  0  0  0  0  0  0  0  0
    3.9102    9.2008   20.3124 C   0  0  0  0  0  0  0  0  0  0  0  0
   12.7292   10.9960   18.4597 C   0  0  0  0  0  0  0  0  0  0  0  0
    9.3798    6.6793   23.6625 C   0  0  0  0  0  0  0  0  0  0  0  0
   14.7425   10.0739   19.0802 O   0  0  0  0  0  0  0  0  0  0  0  0
    5.1894    9.4673   20.7118 C   0  0  0  0  0  0  0  0  0  0  0  0
    7.3773    8.8224   21.4870 C   0  0  0  0  0  0  0  0  0  0  0  0
    8.4391    6.6439   21.0235 C   0  0  0  0  0  0  0  0  0  0  0  0
    9.6494   11.1353   20.4167 C   0  0  0  0  0  0  0  0  0  0  0  0
    8.1431    7.6829   21.9046 C   0  0  0  0  0  0  0  0  0  0  0  0
    7.7796   10.1314   21.5115 N   0  0  0  0  0  0  0  0  0  0  0  0
    9.2768    5.6183   21.4437 C   0  0  0  0  0  0  0  0  0  0  0  0
    8.6315    7.7322   23.1768 C   0  0  0  0  0  0  0  0  0  0  0  0
   13.0537    9.9821   20.5781 C   0  0  0  0  0  0  0  0  0  0  0  0
   10.3850    4.6575   23.2386 O   0  0  0  0  0  0  0  0  0  0  0  0
    4.2069    6.8450   20.7994 C   0  0  0  0  0  0  0  0  0  0  0  0
    3.0726   10.1043   19.8522 O   0  0  0  0  0  0  0  0  0  0  0  0
    5.5057    7.1196   21.1155 C   0  0  0  0  0  0  0  0  0  0  0  0
    7.0367   11.0229   21.9948 O   0  0  0  0  0  0  0  0  0  0  0  0
  1  8  4  0
  1 12  4  0
  2  9  1  0
  2 11  4  0
  2 25  4  0
  3 12  4  0
  3 14  1  0
  3 23  4  0
  4 13  4  0
  4 21  4  0
  4 24  1  0
  5  8  4  0
  5 23  4  0
  6 18  2  0
  7 15  4  0
  7 16  1  0
  7 27  4  0
  8 18  1  0
 10 18  1  0
 10 20  1  0
 11 15  4  0
 11 26  1  0
 13 22  4  0
 16 19  1  0
 16 20  2  0
 17 19  4  0
 17 21  4  0
 19 22  4  0
 20 28  1  0
 25 27  4  0
M  END
$$$$

 Created by Python create_sdf_string function

 28 30  0  0  0  0  0  0  0  0999 V2000
   11.4592   11.2893   18.7941 C   0  0  0  0  0  0  0  0  0  0  0  0
    3.4202    7.9009   20.3866 C   0  0  0  0  0  0  0  0  0  0  0  0
   13.5280   10.3522   19.3586 C   0  0  0  0  0  0  0  0  0  0  0  0
    9.6923    5.6468   22.7891 C   0  0  0  0  0  0  0  0  0  0  0  0
   11.7756   10.2554   20.8841 N   0  0  0  0  0  0  0  0  0  0  0  0
    8.9876   11.9370   19.8757 O   0  0  0  0  0  0  0  0  0  0  0  0
    6.0167    8.4478   21.1089 C   0  0  0  0  0  0  0  0  0  0  0  0
   11.0002   10.8890   20.0262 C   0  0  0  0  0  0  0  0  0  0  0  0
    2.1721    7.7393   20.0315 O   0  0  0  0  0  0  0  0  0  0  0  0
    9.1107   10.3880   21.3769 N   0  0  0  0  0  0  0  0  0  0  0  0
    3.9102    9.2008   20.3124 C   0  0  0  0  0  0  0  0  0  0  0  0
   12.7292   10.9960   18.4597 C   0  0  0  0  0  0  0  0  0  0  0  0
    9.3798    6.6793   23.6625 C   0  0  0  0  0  0  0  0  0  0  0  0
   14.7425   10.0739   19.0802 O   0  0  0  0  0  0  0  0  0  0  0  0
    5.1894    9.4673   20.7118 C   0  0  0  0  0  0  0  0  0  0  0  0
    7.3773    8.8224   21.4870 C   0  0  0  0  0  0  0  0  0  0  0  0
    8.4391    6.6439   21.0235 C   0  0  0  0  0  0  0  0  0  0  0  0
    9.6494   11.1353   20.4167 C   0  0  0  0  0  0  0  0  0  0  0  0
    8.1431    7.6829   21.9046 C   0  0  0  0  0  0  0  0  0  0  0  0
    7.7796   10.1314   21.5115 N   0  0  0  0  0  0  0  0  0  0  0  0
    9.2768    5.6183   21.4437 C   0  0  0  0  0  0  0  0  0  0  0  0
    8.6315    7.7322   23.1768 C   0  0  0  0  0  0  0  0  0  0  0  0
   13.0537    9.9821   20.5781 C   0  0  0  0  0  0  0  0  0  0  0  0
   10.3850    4.6575   23.2386 O   0  0  0  0  0  0  0  0  0  0  0  0
    4.2069    6.8450   20.7994 C   0  0  0  0  0  0  0  0  0  0  0  0
    3.0726   10.1043   19.8522 O   0  0  0  0  0  0  0  0  0  0  0  0
    5.5057    7.1196   21.1155 C   0  0  0  0  0  0  0  0  0  0  0  0
    7.0367   11.0229   21.9948 O   0  0  0  0  0  0  0  0  0  0  0  0
  1  8  4  0
  1 12  4  0
  2  9  1  0
  2 11  4  0
  2 25  4  0
  3 12  4  0
  3 14  1  0
  3 23  4  0
  4 13  4  0
  4 21  4  0
  4 24  1  0
  5  8  4  0
  5 23  4  0
  6 18  2  0
  7 15  4  0
  7 16  1  0
  7 27  4  0
  8 18  1  0
 10 18  1  0
 10 20  1  0
 11 15  4  0
 11 26  1  0
 13 22  4  0
 16 19  1  0
 16 20  2  0
 17 19  4  0
 17 21  4  0
 19 22  4  0
 20 28  1  0
 25 27  4  0
M  END
$$$$

 Created by Python create_sdf_string function

 28 30  0  0  0  0  0  0  0  0999 V2000
   11.4592   11.2893   18.7941 C   0  0  0  0  0  0  0  0  0  0  0  0
    3.4202    7.9009   20.3866 C   0  0  0  0  0  0  0  0  0  0  0  0
   13.5280   10.3522   19.3586 C   0  0  0  0  0  0  0  0  0  0  0  0
    9.6923    5.6468   22.7891 C   0  0  0  0  0  0  0  0  0  0  0  0
   11.7756   10.2554   20.8841 N   0  0  0  0  0  0  0  0  0  0  0  0
    8.9876   11.9370   19.8757 O   0  0  0  0  0  0  0  0  0  0  0  0
    6.0167    8.4478   21.1089 C   0  0  0  0  0  0  0  0  0  0  0  0
   11.0002   10.8890   20.0262 C   0  0  0  0  0  0  0  0  0  0  0  0
    2.1721    7.7393   20.0315 O   0  0  0  0  0  0  0  0  0  0  0  0
    9.1107   10.3880   21.3769 N   0  0  0  0  0  0  0  0  0  0  0  0
    3.9102    9.2008   20.3124 C   0  0  0  0  0  0  0  0  0  0  0  0
   12.7292   10.9960   18.4597 C   0  0  0  0  0  0  0  0  0  0  0  0
    9.3798    6.6793   23.6625 C   0  0  0  0  0  0  0  0  0  0  0  0
   14.7425   10.0739   19.0802 O   0  0  0  0  0  0  0  0  0  0  0  0
    5.1894    9.4673   20.7118 C   0  0  0  0  0  0  0  0  0  0  0  0
    7.3773    8.8224   21.4870 C   0  0  0  0  0  0  0  0  0  0  0  0
    8.4391    6.6439   21.0235 C   0  0  0  0  0  0  0  0  0  0  0  0
    9.6494   11.1353   20.4167 C   0  0  0  0  0  0  0  0  0  0  0  0
    8.1431    7.6829   21.9046 C   0  0  0  0  0  0  0  0  0  0  0  0
    7.7796   10.1314   21.5115 N   0  0  0  0  0  0  0  0  0  0  0  0
    9.2768    5.6183   21.4437 C   0  0  0  0  0  0  0  0  0  0  0  0
    8.6315    7.7322   23.1768 C   0  0  0  0  0  0  0  0  0  0  0  0
   13.0537    9.9821   20.5781 C   0  0  0  0  0  0  0  0  0  0  0  0
   10.3850    4.6575   23.2386 O   0  0  0  0  0  0  0  0  0  0  0  0
    4.2069    6.8450   20.7994 C   0  0  0  0  0  0  0  0  0  0  0  0
    3.0726   10.1043   19.8522 O   0  0  0  0  0  0  0  0  0  0  0  0
    5.5057    7.1196   21.1155 C   0  0  0  0  0  0  0  0  0  0  0  0
    7.0367   11.0229   21.9948 O   0  0  0  0  0  0  0  0  0  0  0  0
  1  8  4  0
  1 12  4  0
  2  9  1  0
  2 11  4  0
  2 25  4  0
  3 12  4  0
  3 14  1  0
  3 23  4  0
  4 13  4  0
  4 21  4  0
  4 24  1  0
  5  8  4  0
  5 23  4  0
  6 18  2  0
  7 15  4  0
  7 16  1  0
  7 27  4  0
  8 18  1  0
 10 18  1  0
 10 20  1  0
 11 15  4  0
 11 26  1  0
 13 22  4  0
 16 19  1  0
 16 20  2  0
 17 19  4  0
 17 21  4  0
 19 22  4  0
 20 28  1  0
 25 27  4  0
M  END
$$$$

 Created by Python create_sdf_string function

 28 30  0  0  0  0  0  0  0  0999 V2000
   11.4592   11.2893   18.7941 C   0  0  0  0  0  0  0  0  0  0  0  0
    3.4202    7.9009   20.3866 C   0  0  0  0  0  0  0  0  0  0  0  0
   13.5280   10.3522   19.3586 C   0  0  0  0  0  0  0  0  0  0  0  0
    9.6923    5.6468   22.7891 C   0  0  0  0  0  0  0  0  0  0  0  0
   11.7756   10.2554   20.8841 N   0  0  0  0  0  0  0  0  0  0  0  0
    8.9876   11.9370   19.8757 O   0  0  0  0  0  0  0  0  0  0  0  0
    6.0167    8.4478   21.1089 C   0  0  0  0  0  0  0  0  0  0  0  0
   11.0002   10.8890   20.0262 C   0  0  0  0  0  0  0  0  0  0  0  0
    2.1721    7.7393   20.0315 O   0  0  0  0  0  0  0  0  0  0  0  0
    9.1107   10.3880   21.3769 N   0  0  0  0  0  0  0  0  0  0  0  0
    3.9102    9.2008   20.3124 C   0  0  0  0  0  0  0  0  0  0  0  0
   12.7292   10.9960   18.4597 C   0  0  0  0  0  0  0  0  0  0  0  0
    9.3798    6.6793   23.6625 C   0  0  0  0  0  0  0  0  0  0  0  0
   14.7425   10.0739   19.0802 O   0  0  0  0  0  0  0  0  0  0  0  0
    5.1894    9.4673   20.7118 C   0  0  0  0  0  0  0  0  0  0  0  0
    7.3773    8.8224   21.4870 C   0  0  0  0  0  0  0  0  0  0  0  0
    8.4391    6.6439   21.0235 C   0  0  0  0  0  0  0  0  0  0  0  0
    9.6494   11.1353   20.4167 C   0  0  0  0  0  0  0  0  0  0  0  0
    8.1431    7.6829   21.9046 C   0  0  0  0  0  0  0  0  0  0  0  0
    7.7796   10.1314   21.5115 N   0  0  0  0  0  0  0  0  0  0  0  0
    9.2768    5.6183   21.4437 C   0  0  0  0  0  0  0  0  0  0  0  0
    8.6315    7.7322   23.1768 C   0  0  0  0  0  0  0  0  0  0  0  0
   13.0537    9.9821   20.5781 C   0  0  0  0  0  0  0  0  0  0  0  0
   10.3850    4.6575   23.2386 O   0  0  0  0  0  0  0  0  0  0  0  0
    4.2069    6.8450   20.7994 C   0  0  0  0  0  0  0  0  0  0  0  0
    3.0726   10.1043   19.8522 O   0  0  0  0  0  0  0  0  0  0  0  0
    5.5057    7.1196   21.1155 C   0  0  0  0  0  0  0  0  0  0  0  0
    7.0367   11.0229   21.9948 O   0  0  0  0  0  0  0  0  0  0  0  0
  1  8  4  0
  1 12  4  0
  2  9  1  0
  2 11  4  0
  2 25  4  0
  3 12  4  0
  3 14  1  0
  3 23  4  0
  4 13  4  0
  4 21  4  0
  4 24  1  0
  5  8  4  0
  5 23  4  0
  6 18  2  0
  7 15  4  0
  7 16  1  0
  7 27  4  0
  8 18  1  0
 10 18  1  0
 10 20  1  0
 11 15  4  0
 11 26  1  0
 13 22  4  0
 16 19  1  0
 16 20  2  0
 17 19  4  0
 17 21  4  0
 19 22  4  0
 20 28  1  0
 25 27  4  0
M  END
$$$$

 Created by Python create_sdf_string function

 28 30  0  0  0  0  0  0  0  0999 V2000
   11.4592   11.2893   18.7941 C   0  0  0  0  0  0  0  0  0  0  0  0
    3.4202    7.9009   20.3866 C   0  0  0  0  0  0  0  0  0  0  0  0
   13.5280   10.3522   19.3586 C   0  0  0  0  0  0  0  0  0  0  0  0
    9.6923    5.6468   22.7891 C   0  0  0  0  0  0  0  0  0  0  0  0
   11.7756   10.2554   20.8841 N   0  0  0  0  0  0  0  0  0  0  0  0
    8.9876   11.9370   19.8757 O   0  0  0  0  0  0  0  0  0  0  0  0
    6.0167    8.4478   21.1089 C   0  0  0  0  0  0  0  0  0  0  0  0
   11.0002   10.8890   20.0262 C   0  0  0  0  0  0  0  0  0  0  0  0
    2.1721    7.7393   20.0315 O   0  0  0  0  0  0  0  0  0  0  0  0
    9.1107   10.3880   21.3769 N   0  0  0  0  0  0  0  0  0  0  0  0
    3.9102    9.2008   20.3124 C   0  0  0  0  0  0  0  0  0  0  0  0
   12.7292   10.9960   18.4597 C   0  0  0  0  0  0  0  0  0  0  0  0
    9.3798    6.6793   23.6625 C   0  0  0  0  0  0  0  0  0  0  0  0
   14.7425   10.0739   19.0802 O   0  0  0  0  0  0  0  0  0  0  0  0
    5.1894    9.4673   20.7118 C   0  0  0  0  0  0  0  0  0  0  0  0
    7.3773    8.8224   21.4870 C   0  0  0  0  0  0  0  0  0  0  0  0
    8.4391    6.6439   21.0235 C   0  0  0  0  0  0  0  0  0  0  0  0
    9.6494   11.1353   20.4167 C   0  0  0  0  0  0  0  0  0  0  0  0
    8.1431    7.6829   21.9046 C   0  0  0  0  0  0  0  0  0  0  0  0
    7.7796   10.1314   21.5115 N   0  0  0  0  0  0  0  0  0  0  0  0
    9.2768    5.6183   21.4437 C   0  0  0  0  0  0  0  0  0  0  0  0
    8.6315    7.7322   23.1768 C   0  0  0  0  0  0  0  0  0  0  0  0
   13.0537    9.9821   20.5781 C   0  0  0  0  0  0  0  0  0  0  0  0
   10.3850    4.6575   23.2386 O   0  0  0  0  0  0  0  0  0  0  0  0
    4.2069    6.8450   20.7994 C   0  0  0  0  0  0  0  0  0  0  0  0
    3.0726   10.1043   19.8522 O   0  0  0  0  0  0  0  0  0  0  0  0
    5.5057    7.1196   21.1155 C   0  0  0  0  0  0  0  0  0  0  0  0
    7.0367   11.0229   21.9948 O   0  0  0  0  0  0  0  0  0  0  0  0
  1  8  4  0
  1 12  4  0
  2  9  1  0
  2 11  4  0
  2 25  4  0
  3 12  4  0
  3 14  1  0
  3 23  4  0
  4 13  4  0
  4 21  4  0
  4 24  1  0
  5  8  4  0
  5 23  4  0
  6 18  2  0
  7 15  4  0
  7 16  1  0
  7 27  4  0
  8 18  1  0
 10 18  1  0
 10 20  1  0
 11 15  4  0
 11 26  1  0
 13 22  4  0
 16 19  1  0
 16 20  2  0
 17 19  4  0
 17 21  4  0
 19 22  4  0
 20 28  1  0
 25 27  4  0
M  END
$$$$

 Created by Python create_sdf_string function

 28 30  0  0  0  0  0  0  0  0999 V2000
   11.4592   11.2893   18.7941 C   0  0  0  0  0  0  0  0  0  0  0  0
    3.4202    7.9009   20.3866 C   0  0  0  0  0  0  0  0  0  0  0  0
   13.5280   10.3522   19.3586 C   0  0  0  0  0  0  0  0  0  0  0  0
    9.6923    5.6468   22.7891 C   0  0  0  0  0  0  0  0  0  0  0  0
   11.7756   10.2554   20.8841 N   0  0  0  0  0  0  0  0  0  0  0  0
    8.9876   11.9370   19.8757 O   0  0  0  0  0  0  0  0  0  0  0  0
    6.0167    8.4478   21.1089 C   0  0  0  0  0  0  0  0  0  0  0  0
   11.0002   10.8890   20.0262 C   0  0  0  0  0  0  0  0  0  0  0  0
    2.1721    7.7393   20.0315 O   0  0  0  0  0  0  0  0  0  0  0  0
    9.1107   10.3880   21.3769 N   0  0  0  0  0  0  0  0  0  0  0  0
    3.9102    9.2008   20.3124 C   0  0  0  0  0  0  0  0  0  0  0  0
   12.7292   10.9960   18.4597 C   0  0  0  0  0  0  0  0  0  0  0  0
    9.3798    6.6793   23.6625 C   0  0  0  0  0  0  0  0  0  0  0  0
   14.7425   10.0739   19.0802 O   0  0  0  0  0  0  0  0  0  0  0  0
    5.1894    9.4673   20.7118 C   0  0  0  0  0  0  0  0  0  0  0  0
    7.3773    8.8224   21.4870 C   0  0  0  0  0  0  0  0  0  0  0  0
    8.4391    6.6439   21.0235 C   0  0  0  0  0  0  0  0  0  0  0  0
    9.6494   11.1353   20.4167 C   0  0  0  0  0  0  0  0  0  0  0  0
    8.1431    7.6829   21.9046 C   0  0  0  0  0  0  0  0  0  0  0  0
    7.7796   10.1314   21.5115 N   0  0  0  0  0  0  0  0  0  0  0  0
    9.2768    5.6183   21.4437 C   0  0  0  0  0  0  0  0  0  0  0  0
    8.6315    7.7322   23.1768 C   0  0  0  0  0  0  0  0  0  0  0  0
   13.0537    9.9821   20.5781 C   0  0  0  0  0  0  0  0  0  0  0  0
   10.3850    4.6575   23.2386 O   0  0  0  0  0  0  0  0  0  0  0  0
    4.2069    6.8450   20.7994 C   0  0  0  0  0  0  0  0  0  0  0  0
    3.0726   10.1043   19.8522 O   0  0  0  0  0  0  0  0  0  0  0  0
    5.5057    7.1196   21.1155 C   0  0  0  0  0  0  0  0  0  0  0  0
    7.0367   11.0229   21.9948 O   0  0  0  0  0  0  0  0  0  0  0  0
  1  8  4  0
  1 12  4  0
  2  9  1  0
  2 11  4  0
  2 25  4  0
  3 12  4  0
  3 14  1  0
  3 23  4  0
  4 13  4  0
  4 21  4  0
  4 24  1  0
  5  8  4  0
  5 23  4  0
  6 18  2  0
  7 15  4  0
  7 16  1  0
  7 27  4  0
  8 18  1  0
 10 18  1  0
 10 20  1  0
 11 15  4  0
 11 26  1  0
 13 22  4  0
 16 19  1  0
 16 20  2  0
 17 19  4  0
 17 21  4  0
 19 22  4  0
 20 28  1  0
 25 27  4  0
M  END
$$$$

 Created by Python create_sdf_string function

 28 30  0  0  0  0  0  0  0  0999 V2000
   11.4592   11.2893   18.7941 C   0  0  0  0  0  0  0  0  0  0  0  0
    3.4202    7.9009   20.3866 C   0  0  0  0  0  0  0  0  0  0  0  0
   13.5280   10.3522   19.3586 C   0  0  0  0  0  0  0  0  0  0  0  0
    9.6923    5.6468   22.7891 C   0  0  0  0  0  0  0  0  0  0  0  0
   11.7756   10.2554   20.8841 N   0  0  0  0  0  0  0  0  0  0  0  0
    8.9876   11.9370   19.8757 O   0  0  0  0  0  0  0  0  0  0  0  0
    6.0167    8.4478   21.1089 C   0  0  0  0  0  0  0  0  0  0  0  0
   11.0002   10.8890   20.0262 C   0  0  0  0  0  0  0  0  0  0  0  0
    2.1721    7.7393   20.0315 O   0  0  0  0  0  0  0  0  0  0  0  0
    9.1107   10.3880   21.3769 N   0  0  0  0  0  0  0  0  0  0  0  0
    3.9102    9.2008   20.3124 C   0  0  0  0  0  0  0  0  0  0  0  0
   12.7292   10.9960   18.4597 C   0  0  0  0  0  0  0  0  0  0  0  0
    9.3798    6.6793   23.6625 C   0  0  0  0  0  0  0  0  0  0  0  0
   14.7425   10.0739   19.0802 O   0  0  0  0  0  0  0  0  0  0  0  0
    5.1894    9.4673   20.7118 C   0  0  0  0  0  0  0  0  0  0  0  0
    7.3773    8.8224   21.4870 C   0  0  0  0  0  0  0  0  0  0  0  0
    8.4391    6.6439   21.0235 C   0  0  0  0  0  0  0  0  0  0  0  0
    9.6494   11.1353   20.4167 C   0  0  0  0  0  0  0  0  0  0  0  0
    8.1431    7.6829   21.9046 C   0  0  0  0  0  0  0  0  0  0  0  0
    7.7796   10.1314   21.5115 N   0  0  0  0  0  0  0  0  0  0  0  0
    9.2768    5.6183   21.4437 C   0  0  0  0  0  0  0  0  0  0  0  0
    8.6315    7.7322   23.1768 C   0  0  0  0  0  0  0  0  0  0  0  0
   13.0537    9.9821   20.5781 C   0  0  0  0  0  0  0  0  0  0  0  0
   10.3850    4.6575   23.2386 O   0  0  0  0  0  0  0  0  0  0  0  0
    4.2069    6.8450   20.7994 C   0  0  0  0  0  0  0  0  0  0  0  0
    3.0726   10.1043   19.8522 O   0  0  0  0  0  0  0  0  0  0  0  0
    5.5057    7.1196   21.1155 C   0  0  0  0  0  0  0  0  0  0  0  0
    7.0367   11.0229   21.9948 O   0  0  0  0  0  0  0  0  0  0  0  0
  1  8  4  0
  1 12  4  0
  2  9  1  0
  2 11  4  0
  2 25  4  0
  3 12  4  0
  3 14  1  0
  3 23  4  0
  4 13  4  0
  4 21  4  0
  4 24  1  0
  5  8  4  0
  5 23  4  0
  6 18  2  0
  7 15  4  0
  7 16  1  0
  7 27  4  0
  8 18  1  0
 10 18  1  0
 10 20  1  0
 11 15  4  0
 11 26  1  0
 13 22  4  0
 16 19  1  0
 16 20  2  0
 17 19  4  0
 17 21  4  0
 19 22  4  0
 20 28  1  0
 25 27  4  0
M  END
$$$$

 Created by Python create_sdf_string function

 28 30  0  0  0  0  0  0  0  0999 V2000
   11.4592   11.2893   18.7941 C   0  0  0  0  0  0  0  0  0  0  0  0
    3.4202    7.9009   20.3866 C   0  0  0  0  0  0  0  0  0  0  0  0
   13.5280   10.3522   19.3586 C   0  0  0  0  0  0  0  0  0  0  0  0
    9.6923    5.6468   22.7891 C   0  0  0  0  0  0  0  0  0  0  0  0
   11.7756   10.2554   20.8841 N   0  0  0  0  0  0  0  0  0  0  0  0
    8.9876   11.9370   19.8757 O   0  0  0  0  0  0  0  0  0  0  0  0
    6.0167    8.4478   21.1089 C   0  0  0  0  0  0  0  0  0  0  0  0
   11.0002   10.8890   20.0262 C   0  0  0  0  0  0  0  0  0  0  0  0
    2.1721    7.7393   20.0315 O   0  0  0  0  0  0  0  0  0  0  0  0
    9.1107   10.3880   21.3769 N   0  0  0  0  0  0  0  0  0  0  0  0
    3.9102    9.2008   20.3124 C   0  0  0  0  0  0  0  0  0  0  0  0
   12.7292   10.9960   18.4597 C   0  0  0  0  0  0  0  0  0  0  0  0
    9.3798    6.6793   23.6625 C   0  0  0  0  0  0  0  0  0  0  0  0
   14.7425   10.0739   19.0802 O   0  0  0  0  0  0  0  0  0  0  0  0
    5.1894    9.4673   20.7118 C   0  0  0  0  0  0  0  0  0  0  0  0
    7.3773    8.8224   21.4870 C   0  0  0  0  0  0  0  0  0  0  0  0
    8.4391    6.6439   21.0235 C   0  0  0  0  0  0  0  0  0  0  0  0
    9.6494   11.1353   20.4167 C   0  0  0  0  0  0  0  0  0  0  0  0
    8.1431    7.6829   21.9046 C   0  0  0  0  0  0  0  0  0  0  0  0
    7.7796   10.1314   21.5115 N   0  0  0  0  0  0  0  0  0  0  0  0
    9.2768    5.6183   21.4437 C   0  0  0  0  0  0  0  0  0  0  0  0
    8.6315    7.7322   23.1768 C   0  0  0  0  0  0  0  0  0  0  0  0
   13.0537    9.9821   20.5781 C   0  0  0  0  0  0  0  0  0  0  0  0
   10.3850    4.6575   23.2386 O   0  0  0  0  0  0  0  0  0  0  0  0
    4.2069    6.8450   20.7994 C   0  0  0  0  0  0  0  0  0  0  0  0
    3.0726   10.1043   19.8522 O   0  0  0  0  0  0  0  0  0  0  0  0
    5.5057    7.1196   21.1155 C   0  0  0  0  0  0  0  0  0  0  0  0
    7.0367   11.0229   21.9948 O   0  0  0  0  0  0  0  0  0  0  0  0
  1  8  4  0
  1 12  4  0
  2  9  1  0
  2 11  4  0
  2 25  4  0
  3 12  4  0
  3 14  1  0
  3 23  4  0
  4 13  4  0
  4 21  4  0
  4 24  1  0
  5  8  4  0
  5 23  4  0
  6 18  2  0
  7 15  4  0
  7 16  1  0
  7 27  4  0
  8 18  1  0
 10 18  1  0
 10 20  1  0
 11 15  4  0
 11 26  1  0
 13 22  4  0
 16 19  1  0
 16 20  2  0
 17 19  4  0
 17 21  4  0
 19 22  4  0
 20 28  1  0
 25 27  4  0
M  END
$$$$

 Created by Python create_sdf_string function

 28 30  0  0  0  0  0  0  0  0999 V2000
   11.4592   11.2893   18.7941 C   0  0  0  0  0  0  0  0  0  0  0  0
    3.4202    7.9009   20.3866 C   0  0  0  0  0  0  0  0  0  0  0  0
   13.5280   10.3522   19.3586 C   0  0  0  0  0  0  0  0  0  0  0  0
    9.6923    5.6468   22.7891 C   0  0  0  0  0  0  0  0  0  0  0  0
   11.7756   10.2554   20.8841 N   0  0  0  0  0  0  0  0  0  0  0  0
    8.9876   11.9370   19.8757 O   0  0  0  0  0  0  0  0  0  0  0  0
    6.0167    8.4478   21.1089 C   0  0  0  0  0  0  0  0  0  0  0  0
   11.0002   10.8890   20.0262 C   0  0  0  0  0  0  0  0  0  0  0  0
    2.1721    7.7393   20.0315 O   0  0  0  0  0  0  0  0  0  0  0  0
    9.1107   10.3880   21.3769 N   0  0  0  0  0  0  0  0  0  0  0  0
    3.9102    9.2008   20.3124 C   0  0  0  0  0  0  0  0  0  0  0  0
   12.7292   10.9960   18.4597 C   0  0  0  0  0  0  0  0  0  0  0  0
    9.3798    6.6793   23.6625 C   0  0  0  0  0  0  0  0  0  0  0  0
   14.7425   10.0739   19.0802 O   0  0  0  0  0  0  0  0  0  0  0  0
    5.1894    9.4673   20.7118 C   0  0  0  0  0  0  0  0  0  0  0  0
    7.3773    8.8224   21.4870 C   0  0  0  0  0  0  0  0  0  0  0  0
    8.4391    6.6439   21.0235 C   0  0  0  0  0  0  0  0  0  0  0  0
    9.6494   11.1353   20.4167 C   0  0  0  0  0  0  0  0  0  0  0  0
    8.1431    7.6829   21.9046 C   0  0  0  0  0  0  0  0  0  0  0  0
    7.7796   10.1314   21.5115 N   0  0  0  0  0  0  0  0  0  0  0  0
    9.2768    5.6183   21.4437 C   0  0  0  0  0  0  0  0  0  0  0  0
    8.6315    7.7322   23.1768 C   0  0  0  0  0  0  0  0  0  0  0  0
   13.0537    9.9821   20.5781 C   0  0  0  0  0  0  0  0  0  0  0  0
   10.3850    4.6575   23.2386 O   0  0  0  0  0  0  0  0  0  0  0  0
    4.2069    6.8450   20.7994 C   0  0  0  0  0  0  0  0  0  0  0  0
    3.0726   10.1043   19.8522 O   0  0  0  0  0  0  0  0  0  0  0  0
    5.5057    7.1196   21.1155 C   0  0  0  0  0  0  0  0  0  0  0  0
    7.0367   11.0229   21.9948 O   0  0  0  0  0  0  0  0  0  0  0  0
  1  8  4  0
  1 12  4  0
  2  9  1  0
  2 11  4  0
  2 25  4  0
  3 12  4  0
  3 14  1  0
  3 23  4  0
  4 13  4  0
  4 21  4  0
  4 24  1  0
  5  8  4  0
  5 23  4  0
  6 18  2  0
  7 15  4  0
  7 16  1  0
  7 27  4  0
  8 18  1  0
 10 18  1  0
 10 20  1  0
 11 15  4  0
 11 26  1  0
 13 22  4  0
 16 19  1  0
 16 20  2  0
 17 19  4  0
 17 21  4  0
 19 22  4  0
 20 28  1  0
 25 27  4  0
M  END
$$$$

 Created by Python create_sdf_string function

 28 30  0  0  0  0  0  0  0  0999 V2000
   11.4592   11.2893   18.7941 C   0  0  0  0  0  0  0  0  0  0  0  0
    3.4202    7.9009   20.3866 C   0  0  0  0  0  0  0  0  0  0  0  0
   13.5280   10.3522   19.3586 C   0  0  0  0  0  0  0  0  0  0  0  0
    9.6923    5.6468   22.7891 C   0  0  0  0  0  0  0  0  0  0  0  0
   11.7756   10.2554   20.8841 N   0  0  0  0  0  0  0  0  0  0  0  0
    8.9876   11.9370   19.8757 O   0  0  0  0  0  0  0  0  0  0  0  0
    6.0167    8.4478   21.1089 C   0  0  0  0  0  0  0  0  0  0  0  0
   11.0002   10.8890   20.0262 C   0  0  0  0  0  0  0  0  0  0  0  0
    2.1721    7.7393   20.0315 O   0  0  0  0  0  0  0  0  0  0  0  0
    9.1107   10.3880   21.3769 N   0  0  0  0  0  0  0  0  0  0  0  0
    3.9102    9.2008   20.3124 C   0  0  0  0  0  0  0  0  0  0  0  0
   12.7292   10.9960   18.4597 C   0  0  0  0  0  0  0  0  0  0  0  0
    9.3798    6.6793   23.6625 C   0  0  0  0  0  0  0  0  0  0  0  0
   14.7425   10.0739   19.0802 O   0  0  0  0  0  0  0  0  0  0  0  0
    5.1894    9.4673   20.7118 C   0  0  0  0  0  0  0  0  0  0  0  0
    7.3773    8.8224   21.4870 C   0  0  0  0  0  0  0  0  0  0  0  0
    8.4391    6.6439   21.0235 C   0  0  0  0  0  0  0  0  0  0  0  0
    9.6494   11.1353   20.4167 C   0  0  0  0  0  0  0  0  0  0  0  0
    8.1431    7.6829   21.9046 C   0  0  0  0  0  0  0  0  0  0  0  0
    7.7796   10.1314   21.5115 N   0  0  0  0  0  0  0  0  0  0  0  0
    9.2768    5.6183   21.4437 C   0  0  0  0  0  0  0  0  0  0  0  0
    8.6315    7.7322   23.1768 C   0  0  0  0  0  0  0  0  0  0  0  0
   13.0537    9.9821   20.5781 C   0  0  0  0  0  0  0  0  0  0  0  0
   10.3850    4.6575   23.2386 O   0  0  0  0  0  0  0  0  0  0  0  0
    4.2069    6.8450   20.7994 C   0  0  0  0  0  0  0  0  0  0  0  0
    3.0726   10.1043   19.8522 O   0  0  0  0  0  0  0  0  0  0  0  0
    5.5057    7.1196   21.1155 C   0  0  0  0  0  0  0  0  0  0  0  0
    7.0367   11.0229   21.9948 O   0  0  0  0  0  0  0  0  0  0  0  0
  1  8  4  0
  1 12  4  0
  2  9  1  0
  2 11  4  0
  2 25  4  0
  3 12  4  0
  3 14  1  0
  3 23  4  0
  4 13  4  0
  4 21  4  0
  4 24  1  0
  5  8  4  0
  5 23  4  0
  6 18  2  0
  7 15  4  0
  7 16  1  0
  7 27  4  0
  8 18  1  0
 10 18  1  0
 10 20  1  0
 11 15  4  0
 11 26  1  0
 13 22  4  0
 16 19  1  0
 16 20  2  0
 17 19  4  0
 17 21  4  0
 19 22  4  0
 20 28  1  0
 25 27  4  0
M  END
$$$$

 Created by Python create_sdf_string function

 28 30  0  0  0  0  0  0  0  0999 V2000
   11.4592   11.2893   18.7941 C   0  0  0  0  0  0  0  0  0  0  0  0
    3.4202    7.9009   20.3866 C   0  0  0  0  0  0  0  0  0  0  0  0
   13.5280   10.3522   19.3586 C   0  0  0  0  0  0  0  0  0  0  0  0
    9.6923    5.6468   22.7891 C   0  0  0  0  0  0  0  0  0  0  0  0
   11.7756   10.2554   20.8841 N   0  0  0  0  0  0  0  0  0  0  0  0
    8.9876   11.9370   19.8757 O   0  0  0  0  0  0  0  0  0  0  0  0
    6.0167    8.4478   21.1089 C   0  0  0  0  0  0  0  0  0  0  0  0
   11.0002   10.8890   20.0262 C   0  0  0  0  0  0  0  0  0  0  0  0
    2.1721    7.7393   20.0315 O   0  0  0  0  0  0  0  0  0  0  0  0
    9.1107   10.3880   21.3769 N   0  0  0  0  0  0  0  0  0  0  0  0
    3.9102    9.2008   20.3124 C   0  0  0  0  0  0  0  0  0  0  0  0
   12.7292   10.9960   18.4597 C   0  0  0  0  0  0  0  0  0  0  0  0
    9.3798    6.6793   23.6625 C   0  0  0  0  0  0  0  0  0  0  0  0
   14.7425   10.0739   19.0802 O   0  0  0  0  0  0  0  0  0  0  0  0
    5.1894    9.4673   20.7118 C   0  0  0  0  0  0  0  0  0  0  0  0
    7.3773    8.8224   21.4870 C   0  0  0  0  0  0  0  0  0  0  0  0
    8.4391    6.6439   21.0235 C   0  0  0  0  0  0  0  0  0  0  0  0
    9.6494   11.1353   20.4167 C   0  0  0  0  0  0  0  0  0  0  0  0
    8.1431    7.6829   21.9046 C   0  0  0  0  0  0  0  0  0  0  0  0
    7.7796   10.1314   21.5115 N   0  0  0  0  0  0  0  0  0  0  0  0
    9.2768    5.6183   21.4437 C   0  0  0  0  0  0  0  0  0  0  0  0
    8.6315    7.7322   23.1768 C   0  0  0  0  0  0  0  0  0  0  0  0
   13.0537    9.9821   20.5781 C   0  0  0  0  0  0  0  0  0  0  0  0
   10.3850    4.6575   23.2386 O   0  0  0  0  0  0  0  0  0  0  0  0
    4.2069    6.8450   20.7994 C   0  0  0  0  0  0  0  0  0  0  0  0
    3.0726   10.1043   19.8522 O   0  0  0  0  0  0  0  0  0  0  0  0
    5.5057    7.1196   21.1155 C   0  0  0  0  0  0  0  0  0  0  0  0
    7.0367   11.0229   21.9948 O   0  0  0  0  0  0  0  0  0  0  0  0
  1  8  4  0
  1 12  4  0
  2  9  1  0
  2 11  4  0
  2 25  4  0
  3 12  4  0
  3 14  1  0
  3 23  4  0
  4 13  4  0
  4 21  4  0
  4 24  1  0
  5  8  4  0
  5 23  4  0
  6 18  2  0
  7 15  4  0
  7 16  1  0
  7 27  4  0
  8 18  1  0
 10 18  1  0
 10 20  1  0
 11 15  4  0
 11 26  1  0
 13 22  4  0
 16 19  1  0
 16 20  2  0
 17 19  4  0
 17 21  4  0
 19 22  4  0
 20 28  1  0
 25 27  4  0
M  END
$$$$

 Created by Python create_sdf_string function

 28 30  0  0  0  0  0  0  0  0999 V2000
   11.4592   11.2893   18.7941 C   0  0  0  0  0  0  0  0  0  0  0  0
    3.4202    7.9009   20.3866 C   0  0  0  0  0  0  0  0  0  0  0  0
   13.5280   10.3522   19.3586 C   0  0  0  0  0  0  0  0  0  0  0  0
    9.6923    5.6468   22.7891 C   0  0  0  0  0  0  0  0  0  0  0  0
   11.7756   10.2554   20.8841 N   0  0  0  0  0  0  0  0  0  0  0  0
    8.9876   11.9370   19.8757 O   0  0  0  0  0  0  0  0  0  0  0  0
    6.0167    8.4478   21.1089 C   0  0  0  0  0  0  0  0  0  0  0  0
   11.0002   10.8890   20.0262 C   0  0  0  0  0  0  0  0  0  0  0  0
    2.1721    7.7393   20.0315 O   0  0  0  0  0  0  0  0  0  0  0  0
    9.1107   10.3880   21.3769 N   0  0  0  0  0  0  0  0  0  0  0  0
    3.9102    9.2008   20.3124 C   0  0  0  0  0  0  0  0  0  0  0  0
   12.7292   10.9960   18.4597 C   0  0  0  0  0  0  0  0  0  0  0  0
    9.3798    6.6793   23.6625 C   0  0  0  0  0  0  0  0  0  0  0  0
   14.7425   10.0739   19.0802 O   0  0  0  0  0  0  0  0  0  0  0  0
    5.1894    9.4673   20.7118 C   0  0  0  0  0  0  0  0  0  0  0  0
    7.3773    8.8224   21.4870 C   0  0  0  0  0  0  0  0  0  0  0  0
    8.4391    6.6439   21.0235 C   0  0  0  0  0  0  0  0  0  0  0  0
    9.6494   11.1353   20.4167 C   0  0  0  0  0  0  0  0  0  0  0  0
    8.1431    7.6829   21.9046 C   0  0  0  0  0  0  0  0  0  0  0  0
    7.7796   10.1314   21.5115 N   0  0  0  0  0  0  0  0  0  0  0  0
    9.2768    5.6183   21.4437 C   0  0  0  0  0  0  0  0  0  0  0  0
    8.6315    7.7322   23.1768 C   0  0  0  0  0  0  0  0  0  0  0  0
   13.0537    9.9821   20.5781 C   0  0  0  0  0  0  0  0  0  0  0  0
   10.3850    4.6575   23.2386 O   0  0  0  0  0  0  0  0  0  0  0  0
    4.2069    6.8450   20.7994 C   0  0  0  0  0  0  0  0  0  0  0  0
    3.0726   10.1043   19.8522 O   0  0  0  0  0  0  0  0  0  0  0  0
    5.5057    7.1196   21.1155 C   0  0  0  0  0  0  0  0  0  0  0  0
    7.0367   11.0229   21.9948 O   0  0  0  0  0  0  0  0  0  0  0  0
  1  8  4  0
  1 12  4  0
  2  9  1  0
  2 11  4  0
  2 25  4  0
  3 12  4  0
  3 14  1  0
  3 23  4  0
  4 13  4  0
  4 21  4  0
  4 24  1  0
  5  8  4  0
  5 23  4  0
  6 18  2  0
  7 15  4  0
  7 16  1  0
  7 27  4  0
  8 18  1  0
 10 18  1  0
 10 20  1  0
 11 15  4  0
 11 26  1  0
 13 22  4  0
 16 19  1  0
 16 20  2  0
 17 19  4  0
 17 21  4  0
 19 22  4  0
 20 28  1  0
 25 27  4  0
M  END
$$$$

 Created by Python create_sdf_string function

 28 30  0  0  0  0  0  0  0  0999 V2000
   11.4592   11.2893   18.7941 C   0  0  0  0  0  0  0  0  0  0  0  0
    3.4202    7.9009   20.3866 C   0  0  0  0  0  0  0  0  0  0  0  0
   13.5280   10.3522   19.3586 C   0  0  0  0  0  0  0  0  0  0  0  0
    9.6923    5.6468   22.7891 C   0  0  0  0  0  0  0  0  0  0  0  0
   11.7756   10.2554   20.8841 N   0  0  0  0  0  0  0  0  0  0  0  0
    8.9876   11.9370   19.8757 O   0  0  0  0  0  0  0  0  0  0  0  0
    6.0167    8.4478   21.1089 C   0  0  0  0  0  0  0  0  0  0  0  0
   11.0002   10.8890   20.0262 C   0  0  0  0  0  0  0  0  0  0  0  0
    2.1721    7.7393   20.0315 O   0  0  0  0  0  0  0  0  0  0  0  0
    9.1107   10.3880   21.3769 N   0  0  0  0  0  0  0  0  0  0  0  0
    3.9102    9.2008   20.3124 C   0  0  0  0  0  0  0  0  0  0  0  0
   12.7292   10.9960   18.4597 C   0  0  0  0  0  0  0  0  0  0  0  0
    9.3798    6.6793   23.6625 C   0  0  0  0  0  0  0  0  0  0  0  0
   14.7425   10.0739   19.0802 O   0  0  0  0  0  0  0  0  0  0  0  0
    5.1894    9.4673   20.7118 C   0  0  0  0  0  0  0  0  0  0  0  0
    7.3773    8.8224   21.4870 C   0  0  0  0  0  0  0  0  0  0  0  0
    8.4391    6.6439   21.0235 C   0  0  0  0  0  0  0  0  0  0  0  0
    9.6494   11.1353   20.4167 C   0  0  0  0  0  0  0  0  0  0  0  0
    8.1431    7.6829   21.9046 C   0  0  0  0  0  0  0  0  0  0  0  0
    7.7796   10.1314   21.5115 N   0  0  0  0  0  0  0  0  0  0  0  0
    9.2768    5.6183   21.4437 C   0  0  0  0  0  0  0  0  0  0  0  0
    8.6315    7.7322   23.1768 C   0  0  0  0  0  0  0  0  0  0  0  0
   13.0537    9.9821   20.5781 C   0  0  0  0  0  0  0  0  0  0  0  0
   10.3850    4.6575   23.2386 O   0  0  0  0  0  0  0  0  0  0  0  0
    4.2069    6.8450   20.7994 C   0  0  0  0  0  0  0  0  0  0  0  0
    3.0726   10.1043   19.8522 O   0  0  0  0  0  0  0  0  0  0  0  0
    5.5057    7.1196   21.1155 C   0  0  0  0  0  0  0  0  0  0  0  0
    7.0367   11.0229   21.9948 O   0  0  0  0  0  0  0  0  0  0  0  0
  1  8  4  0
  1 12  4  0
  2  9  1  0
  2 11  4  0
  2 25  4  0
  3 12  4  0
  3 14  1  0
  3 23  4  0
  4 13  4  0
  4 21  4  0
  4 24  1  0
  5  8  4  0
  5 23  4  0
  6 18  2  0
  7 15  4  0
  7 16  1  0
  7 27  4  0
  8 18  1  0
 10 18  1  0
 10 20  1  0
 11 15  4  0
 11 26  1  0
 13 22  4  0
 16 19  1  0
 16 20  2  0
 17 19  4  0
 17 21  4  0
 19 22  4  0
 20 28  1  0
 25 27  4  0
M  END
$$$$

 Created by Python create_sdf_string function

 28 30  0  0  0  0  0  0  0  0999 V2000
   11.4592   11.2893   18.7941 C   0  0  0  0  0  0  0  0  0  0  0  0
    3.4202    7.9009   20.3866 C   0  0  0  0  0  0  0  0  0  0  0  0
   13.5280   10.3522   19.3586 C   0  0  0  0  0  0  0  0  0  0  0  0
    9.6923    5.6468   22.7891 C   0  0  0  0  0  0  0  0  0  0  0  0
   11.7756   10.2554   20.8841 N   0  0  0  0  0  0  0  0  0  0  0  0
    8.9876   11.9370   19.8757 O   0  0  0  0  0  0  0  0  0  0  0  0
    6.0167    8.4478   21.1089 C   0  0  0  0  0  0  0  0  0  0  0  0
   11.0002   10.8890   20.0262 C   0  0  0  0  0  0  0  0  0  0  0  0
    2.1721    7.7393   20.0315 O   0  0  0  0  0  0  0  0  0  0  0  0
    9.1107   10.3880   21.3769 N   0  0  0  0  0  0  0  0  0  0  0  0
    3.9102    9.2008   20.3124 C   0  0  0  0  0  0  0  0  0  0  0  0
   12.7292   10.9960   18.4597 C   0  0  0  0  0  0  0  0  0  0  0  0
    9.3798    6.6793   23.6625 C   0  0  0  0  0  0  0  0  0  0  0  0
   14.7425   10.0739   19.0802 O   0  0  0  0  0  0  0  0  0  0  0  0
    5.1894    9.4673   20.7118 C   0  0  0  0  0  0  0  0  0  0  0  0
    7.3773    8.8224   21.4870 C   0  0  0  0  0  0  0  0  0  0  0  0
    8.4391    6.6439   21.0235 C   0  0  0  0  0  0  0  0  0  0  0  0
    9.6494   11.1353   20.4167 C   0  0  0  0  0  0  0  0  0  0  0  0
    8.1431    7.6829   21.9046 C   0  0  0  0  0  0  0  0  0  0  0  0
    7.7796   10.1314   21.5115 N   0  0  0  0  0  0  0  0  0  0  0  0
    9.2768    5.6183   21.4437 C   0  0  0  0  0  0  0  0  0  0  0  0
    8.6315    7.7322   23.1768 C   0  0  0  0  0  0  0  0  0  0  0  0
   13.0537    9.9821   20.5781 C   0  0  0  0  0  0  0  0  0  0  0  0
   10.3850    4.6575   23.2386 O   0  0  0  0  0  0  0  0  0  0  0  0
    4.2069    6.8450   20.7994 C   0  0  0  0  0  0  0  0  0  0  0  0
    3.0726   10.1043   19.8522 O   0  0  0  0  0  0  0  0  0  0  0  0
    5.5057    7.1196   21.1155 C   0  0  0  0  0  0  0  0  0  0  0  0
    7.0367   11.0229   21.9948 O   0  0  0  0  0  0  0  0  0  0  0  0
  1  8  4  0
  1 12  4  0
  2  9  1  0
  2 11  4  0
  2 25  4  0
  3 12  4  0
  3 14  1  0
  3 23  4  0
  4 13  4  0
  4 21  4  0
  4 24  1  0
  5  8  4  0
  5 23  4  0
  6 18  2  0
  7 15  4  0
  7 16  1  0
  7 27  4  0
  8 18  1  0
 10 18  1  0
 10 20  1  0
 11 15  4  0
 11 26  1  0
 13 22  4  0
 16 19  1  0
 16 20  2  0
 17 19  4  0
 17 21  4  0
 19 22  4  0
 20 28  1  0
 25 27  4  0
M  END
$$$$

 Created by Python create_sdf_string function

 28 30  0  0  0  0  0  0  0  0999 V2000
   11.4592   11.2893   18.7941 C   0  0  0  0  0  0  0  0  0  0  0  0
    3.4202    7.9009   20.3866 C   0  0  0  0  0  0  0  0  0  0  0  0
   13.5280   10.3522   19.3586 C   0  0  0  0  0  0  0  0  0  0  0  0
    9.6923    5.6468   22.7891 C   0  0  0  0  0  0  0  0  0  0  0  0
   11.7756   10.2554   20.8841 N   0  0  0  0  0  0  0  0  0  0  0  0
    8.9876   11.9370   19.8757 O   0  0  0  0  0  0  0  0  0  0  0  0
    6.0167    8.4478   21.1089 C   0  0  0  0  0  0  0  0  0  0  0  0
   11.0002   10.8890   20.0262 C   0  0  0  0  0  0  0  0  0  0  0  0
    2.1721    7.7393   20.0315 O   0  0  0  0  0  0  0  0  0  0  0  0
    9.1107   10.3880   21.3769 N   0  0  0  0  0  0  0  0  0  0  0  0
    3.9102    9.2008   20.3124 C   0  0  0  0  0  0  0  0  0  0  0  0
   12.7292   10.9960   18.4597 C   0  0  0  0  0  0  0  0  0  0  0  0
    9.3798    6.6793   23.6625 C   0  0  0  0  0  0  0  0  0  0  0  0
   14.7425   10.0739   19.0802 O   0  0  0  0  0  0  0  0  0  0  0  0
    5.1894    9.4673   20.7118 C   0  0  0  0  0  0  0  0  0  0  0  0
    7.3773    8.8224   21.4870 C   0  0  0  0  0  0  0  0  0  0  0  0
    8.4391    6.6439   21.0235 C   0  0  0  0  0  0  0  0  0  0  0  0
    9.6494   11.1353   20.4167 C   0  0  0  0  0  0  0  0  0  0  0  0
    8.1431    7.6829   21.9046 C   0  0  0  0  0  0  0  0  0  0  0  0
    7.7796   10.1314   21.5115 N   0  0  0  0  0  0  0  0  0  0  0  0
    9.2768    5.6183   21.4437 C   0  0  0  0  0  0  0  0  0  0  0  0
    8.6315    7.7322   23.1768 C   0  0  0  0  0  0  0  0  0  0  0  0
   13.0537    9.9821   20.5781 C   0  0  0  0  0  0  0  0  0  0  0  0
   10.3850    4.6575   23.2386 O   0  0  0  0  0  0  0  0  0  0  0  0
    4.2069    6.8450   20.7994 C   0  0  0  0  0  0  0  0  0  0  0  0
    3.0726   10.1043   19.8522 O   0  0  0  0  0  0  0  0  0  0  0  0
    5.5057    7.1196   21.1155 C   0  0  0  0  0  0  0  0  0  0  0  0
    7.0367   11.0229   21.9948 O   0  0  0  0  0  0  0  0  0  0  0  0
  1  8  4  0
  1 12  4  0
  2  9  1  0
  2 11  4  0
  2 25  4  0
  3 12  4  0
  3 14  1  0
  3 23  4  0
  4 13  4  0
  4 21  4  0
  4 24  1  0
  5  8  4  0
  5 23  4  0
  6 18  2  0
  7 15  4  0
  7 16  1  0
  7 27  4  0
  8 18  1  0
 10 18  1  0
 10 20  1  0
 11 15  4  0
 11 26  1  0
 13 22  4  0
 16 19  1  0
 16 20  2  0
 17 19  4  0
 17 21  4  0
 19 22  4  0
 20 28  1  0
 25 27  4  0
M  END
$$$$

 Created by Python create_sdf_string function

 28 30  0  0  0  0  0  0  0  0999 V2000
   11.4592   11.2893   18.7941 C   0  0  0  0  0  0  0  0  0  0  0  0
    3.4202    7.9009   20.3866 C   0  0  0  0  0  0  0  0  0  0  0  0
   13.5280   10.3522   19.3586 C   0  0  0  0  0  0  0  0  0  0  0  0
    9.6923    5.6468   22.7891 C   0  0  0  0  0  0  0  0  0  0  0  0
   11.7756   10.2554   20.8841 N   0  0  0  0  0  0  0  0  0  0  0  0
    8.9876   11.9370   19.8757 O   0  0  0  0  0  0  0  0  0  0  0  0
    6.0167    8.4478   21.1089 C   0  0  0  0  0  0  0  0  0  0  0  0
   11.0002   10.8890   20.0262 C   0  0  0  0  0  0  0  0  0  0  0  0
    2.1721    7.7393   20.0315 O   0  0  0  0  0  0  0  0  0  0  0  0
    9.1107   10.3880   21.3769 N   0  0  0  0  0  0  0  0  0  0  0  0
    3.9102    9.2008   20.3124 C   0  0  0  0  0  0  0  0  0  0  0  0
   12.7292   10.9960   18.4597 C   0  0  0  0  0  0  0  0  0  0  0  0
    9.3798    6.6793   23.6625 C   0  0  0  0  0  0  0  0  0  0  0  0
   14.7425   10.0739   19.0802 O   0  0  0  0  0  0  0  0  0  0  0  0
    5.1894    9.4673   20.7118 C   0  0  0  0  0  0  0  0  0  0  0  0
    7.3773    8.8224   21.4870 C   0  0  0  0  0  0  0  0  0  0  0  0
    8.4391    6.6439   21.0235 C   0  0  0  0  0  0  0  0  0  0  0  0
    9.6494   11.1353   20.4167 C   0  0  0  0  0  0  0  0  0  0  0  0
    8.1431    7.6829   21.9046 C   0  0  0  0  0  0  0  0  0  0  0  0
    7.7796   10.1314   21.5115 N   0  0  0  0  0  0  0  0  0  0  0  0
    9.2768    5.6183   21.4437 C   0  0  0  0  0  0  0  0  0  0  0  0
    8.6315    7.7322   23.1768 C   0  0  0  0  0  0  0  0  0  0  0  0
   13.0537    9.9821   20.5781 C   0  0  0  0  0  0  0  0  0  0  0  0
   10.3850    4.6575   23.2386 O   0  0  0  0  0  0  0  0  0  0  0  0
    4.2069    6.8450   20.7994 C   0  0  0  0  0  0  0  0  0  0  0  0
    3.0726   10.1043   19.8522 O   0  0  0  0  0  0  0  0  0  0  0  0
    5.5057    7.1196   21.1155 C   0  0  0  0  0  0  0  0  0  0  0  0
    7.0367   11.0229   21.9948 O   0  0  0  0  0  0  0  0  0  0  0  0
  1  8  4  0
  1 12  4  0
  2  9  1  0
  2 11  4  0
  2 25  4  0
  3 12  4  0
  3 14  1  0
  3 23  4  0
  4 13  4  0
  4 21  4  0
  4 24  1  0
  5  8  4  0
  5 23  4  0
  6 18  2  0
  7 15  4  0
  7 16  1  0
  7 27  4  0
  8 18  1  0
 10 18  1  0
 10 20  1  0
 11 15  4  0
 11 26  1  0
 13 22  4  0
 16 19  1  0
 16 20  2  0
 17 19  4  0
 17 21  4  0
 19 22  4  0
 20 28  1  0
 25 27  4  0
M  END
$$$$

 Created by Python create_sdf_string function

 28 30  0  0  0  0  0  0  0  0999 V2000
   11.4592   11.2893   18.7941 C   0  0  0  0  0  0  0  0  0  0  0  0
    3.4202    7.9009   20.3866 C   0  0  0  0  0  0  0  0  0  0  0  0
   13.5280   10.3522   19.3586 C   0  0  0  0  0  0  0  0  0  0  0  0
    9.6923    5.6468   22.7891 C   0  0  0  0  0  0  0  0  0  0  0  0
   11.7756   10.2554   20.8841 N   0  0  0  0  0  0  0  0  0  0  0  0
    8.9876   11.9370   19.8757 O   0  0  0  0  0  0  0  0  0  0  0  0
    6.0167    8.4478   21.1089 C   0  0  0  0  0  0  0  0  0  0  0  0
   11.0002   10.8890   20.0262 C   0  0  0  0  0  0  0  0  0  0  0  0
    2.1721    7.7393   20.0315 O   0  0  0  0  0  0  0  0  0  0  0  0
    9.1107   10.3880   21.3769 N   0  0  0  0  0  0  0  0  0  0  0  0
    3.9102    9.2008   20.3124 C   0  0  0  0  0  0  0  0  0  0  0  0
   12.7292   10.9960   18.4597 C   0  0  0  0  0  0  0  0  0  0  0  0
    9.3798    6.6793   23.6625 C   0  0  0  0  0  0  0  0  0  0  0  0
   14.7425   10.0739   19.0802 O   0  0  0  0  0  0  0  0  0  0  0  0
    5.1894    9.4673   20.7118 C   0  0  0  0  0  0  0  0  0  0  0  0
    7.3773    8.8224   21.4870 C   0  0  0  0  0  0  0  0  0  0  0  0
    8.4391    6.6439   21.0235 C   0  0  0  0  0  0  0  0  0  0  0  0
    9.6494   11.1353   20.4167 C   0  0  0  0  0  0  0  0  0  0  0  0
    8.1431    7.6829   21.9046 C   0  0  0  0  0  0  0  0  0  0  0  0
    7.7796   10.1314   21.5115 N   0  0  0  0  0  0  0  0  0  0  0  0
    9.2768    5.6183   21.4437 C   0  0  0  0  0  0  0  0  0  0  0  0
    8.6315    7.7322   23.1768 C   0  0  0  0  0  0  0  0  0  0  0  0
   13.0537    9.9821   20.5781 C   0  0  0  0  0  0  0  0  0  0  0  0
   10.3850    4.6575   23.2386 O   0  0  0  0  0  0  0  0  0  0  0  0
    4.2069    6.8450   20.7994 C   0  0  0  0  0  0  0  0  0  0  0  0
    3.0726   10.1043   19.8522 O   0  0  0  0  0  0  0  0  0  0  0  0
    5.5057    7.1196   21.1155 C   0  0  0  0  0  0  0  0  0  0  0  0
    7.0367   11.0229   21.9948 O   0  0  0  0  0  0  0  0  0  0  0  0
  1  8  4  0
  1 12  4  0
  2  9  1  0
  2 11  4  0
  2 25  4  0
  3 12  4  0
  3 14  1  0
  3 23  4  0
  4 13  4  0
  4 21  4  0
  4 24  1  0
  5  8  4  0
  5 23  4  0
  6 18  2  0
  7 15  4  0
  7 16  1  0
  7 27  4  0
  8 18  1  0
 10 18  1  0
 10 20  1  0
 11 15  4  0
 11 26  1  0
 13 22  4  0
 16 19  1  0
 16 20  2  0
 17 19  4  0
 17 21  4  0
 19 22  4  0
 20 28  1  0
 25 27  4  0
M  END
$$$$

 Created by Python create_sdf_string function

 28 30  0  0  0  0  0  0  0  0999 V2000
   11.4592   11.2893   18.7941 C   0  0  0  0  0  0  0  0  0  0  0  0
    3.4202    7.9009   20.3866 C   0  0  0  0  0  0  0  0  0  0  0  0
   13.5280   10.3522   19.3586 C   0  0  0  0  0  0  0  0  0  0  0  0
    9.6923    5.6468   22.7891 C   0  0  0  0  0  0  0  0  0  0  0  0
   11.7756   10.2554   20.8841 N   0  0  0  0  0  0  0  0  0  0  0  0
    8.9876   11.9370   19.8757 O   0  0  0  0  0  0  0  0  0  0  0  0
    6.0167    8.4478   21.1089 C   0  0  0  0  0  0  0  0  0  0  0  0
   11.0002   10.8890   20.0262 C   0  0  0  0  0  0  0  0  0  0  0  0
    2.1721    7.7393   20.0315 O   0  0  0  0  0  0  0  0  0  0  0  0
    9.1107   10.3880   21.3769 N   0  0  0  0  0  0  0  0  0  0  0  0
    3.9102    9.2008   20.3124 C   0  0  0  0  0  0  0  0  0  0  0  0
   12.7292   10.9960   18.4597 C   0  0  0  0  0  0  0  0  0  0  0  0
    9.3798    6.6793   23.6625 C   0  0  0  0  0  0  0  0  0  0  0  0
   14.7425   10.0739   19.0802 O   0  0  0  0  0  0  0  0  0  0  0  0
    5.1894    9.4673   20.7118 C   0  0  0  0  0  0  0  0  0  0  0  0
    7.3773    8.8224   21.4870 C   0  0  0  0  0  0  0  0  0  0  0  0
    8.4391    6.6439   21.0235 C   0  0  0  0  0  0  0  0  0  0  0  0
    9.6494   11.1353   20.4167 C   0  0  0  0  0  0  0  0  0  0  0  0
    8.1431    7.6829   21.9046 C   0  0  0  0  0  0  0  0  0  0  0  0
    7.7796   10.1314   21.5115 N   0  0  0  0  0  0  0  0  0  0  0  0
    9.2768    5.6183   21.4437 C   0  0  0  0  0  0  0  0  0  0  0  0
    8.6315    7.7322   23.1768 C   0  0  0  0  0  0  0  0  0  0  0  0
   13.0537    9.9821   20.5781 C   0  0  0  0  0  0  0  0  0  0  0  0
   10.3850    4.6575   23.2386 O   0  0  0  0  0  0  0  0  0  0  0  0
    4.2069    6.8450   20.7994 C   0  0  0  0  0  0  0  0  0  0  0  0
    3.0726   10.1043   19.8522 O   0  0  0  0  0  0  0  0  0  0  0  0
    5.5057    7.1196   21.1155 C   0  0  0  0  0  0  0  0  0  0  0  0
    7.0367   11.0229   21.9948 O   0  0  0  0  0  0  0  0  0  0  0  0
  1  8  4  0
  1 12  4  0
  2  9  1  0
  2 11  4  0
  2 25  4  0
  3 12  4  0
  3 14  1  0
  3 23  4  0
  4 13  4  0
  4 21  4  0
  4 24  1  0
  5  8  4  0
  5 23  4  0
  6 18  2  0
  7 15  4  0
  7 16  1  0
  7 27  4  0
  8 18  1  0
 10 18  1  0
 10 20  1  0
 11 15  4  0
 11 26  1  0
 13 22  4  0
 16 19  1  0
 16 20  2  0
 17 19  4  0
 17 21  4  0
 19 22  4  0
 20 28  1  0
 25 27  4  0
M  END
$$$$

 Created by Python create_sdf_string function

 28 30  0  0  0  0  0  0  0  0999 V2000
   11.4592   11.2893   18.7941 C   0  0  0  0  0  0  0  0  0  0  0  0
    3.4202    7.9009   20.3866 C   0  0  0  0  0  0  0  0  0  0  0  0
   13.5280   10.3522   19.3586 C   0  0  0  0  0  0  0  0  0  0  0  0
    9.6923    5.6468   22.7891 C   0  0  0  0  0  0  0  0  0  0  0  0
   11.7756   10.2554   20.8841 N   0  0  0  0  0  0  0  0  0  0  0  0
    8.9876   11.9370   19.8757 O   0  0  0  0  0  0  0  0  0  0  0  0
    6.0167    8.4478   21.1089 C   0  0  0  0  0  0  0  0  0  0  0  0
   11.0002   10.8890   20.0262 C   0  0  0  0  0  0  0  0  0  0  0  0
    2.1721    7.7393   20.0315 O   0  0  0  0  0  0  0  0  0  0  0  0
    9.1107   10.3880   21.3769 N   0  0  0  0  0  0  0  0  0  0  0  0
    3.9102    9.2008   20.3124 C   0  0  0  0  0  0  0  0  0  0  0  0
   12.7292   10.9960   18.4597 C   0  0  0  0  0  0  0  0  0  0  0  0
    9.3798    6.6793   23.6625 C   0  0  0  0  0  0  0  0  0  0  0  0
   14.7425   10.0739   19.0802 O   0  0  0  0  0  0  0  0  0  0  0  0
    5.1894    9.4673   20.7118 C   0  0  0  0  0  0  0  0  0  0  0  0
    7.3773    8.8224   21.4870 C   0  0  0  0  0  0  0  0  0  0  0  0
    8.4391    6.6439   21.0235 C   0  0  0  0  0  0  0  0  0  0  0  0
    9.6494   11.1353   20.4167 C   0  0  0  0  0  0  0  0  0  0  0  0
    8.1431    7.6829   21.9046 C   0  0  0  0  0  0  0  0  0  0  0  0
    7.7796   10.1314   21.5115 N   0  0  0  0  0  0  0  0  0  0  0  0
    9.2768    5.6183   21.4437 C   0  0  0  0  0  0  0  0  0  0  0  0
    8.6315    7.7322   23.1768 C   0  0  0  0  0  0  0  0  0  0  0  0
   13.0537    9.9821   20.5781 C   0  0  0  0  0  0  0  0  0  0  0  0
   10.3850    4.6575   23.2386 O   0  0  0  0  0  0  0  0  0  0  0  0
    4.2069    6.8450   20.7994 C   0  0  0  0  0  0  0  0  0  0  0  0
    3.0726   10.1043   19.8522 O   0  0  0  0  0  0  0  0  0  0  0  0
    5.5057    7.1196   21.1155 C   0  0  0  0  0  0  0  0  0  0  0  0
    7.0367   11.0229   21.9948 O   0  0  0  0  0  0  0  0  0  0  0  0
  1  8  4  0
  1 12  4  0
  2  9  1  0
  2 11  4  0
  2 25  4  0
  3 12  4  0
  3 14  1  0
  3 23  4  0
  4 13  4  0
  4 21  4  0
  4 24  1  0
  5  8  4  0
  5 23  4  0
  6 18  2  0
  7 15  4  0
  7 16  1  0
  7 27  4  0
  8 18  1  0
 10 18  1  0
 10 20  1  0
 11 15  4  0
 11 26  1  0
 13 22  4  0
 16 19  1  0
 16 20  2  0
 17 19  4  0
 17 21  4  0
 19 22  4  0
 20 28  1  0
 25 27  4  0
M  END
$$$$

 Created by Python create_sdf_string function

 28 30  0  0  0  0  0  0  0  0999 V2000
   11.4592   11.2893   18.7941 C   0  0  0  0  0  0  0  0  0  0  0  0
    3.4202    7.9009   20.3866 C   0  0  0  0  0  0  0  0  0  0  0  0
   13.5280   10.3522   19.3586 C   0  0  0  0  0  0  0  0  0  0  0  0
    9.6923    5.6468   22.7891 C   0  0  0  0  0  0  0  0  0  0  0  0
   11.7756   10.2554   20.8841 N   0  0  0  0  0  0  0  0  0  0  0  0
    8.9876   11.9370   19.8757 O   0  0  0  0  0  0  0  0  0  0  0  0
    6.0167    8.4478   21.1089 C   0  0  0  0  0  0  0  0  0  0  0  0
   11.0002   10.8890   20.0262 C   0  0  0  0  0  0  0  0  0  0  0  0
    2.1721    7.7393   20.0315 O   0  0  0  0  0  0  0  0  0  0  0  0
    9.1107   10.3880   21.3769 N   0  0  0  0  0  0  0  0  0  0  0  0
    3.9102    9.2008   20.3124 C   0  0  0  0  0  0  0  0  0  0  0  0
   12.7292   10.9960   18.4597 C   0  0  0  0  0  0  0  0  0  0  0  0
    9.3798    6.6793   23.6625 C   0  0  0  0  0  0  0  0  0  0  0  0
   14.7425   10.0739   19.0802 O   0  0  0  0  0  0  0  0  0  0  0  0
    5.1894    9.4673   20.7118 C   0  0  0  0  0  0  0  0  0  0  0  0
    7.3773    8.8224   21.4870 C   0  0  0  0  0  0  0  0  0  0  0  0
    8.4391    6.6439   21.0235 C   0  0  0  0  0  0  0  0  0  0  0  0
    9.6494   11.1353   20.4167 C   0  0  0  0  0  0  0  0  0  0  0  0
    8.1431    7.6829   21.9046 C   0  0  0  0  0  0  0  0  0  0  0  0
    7.7796   10.1314   21.5115 N   0  0  0  0  0  0  0  0  0  0  0  0
    9.2768    5.6183   21.4437 C   0  0  0  0  0  0  0  0  0  0  0  0
    8.6315    7.7322   23.1768 C   0  0  0  0  0  0  0  0  0  0  0  0
   13.0537    9.9821   20.5781 C   0  0  0  0  0  0  0  0  0  0  0  0
   10.3850    4.6575   23.2386 O   0  0  0  0  0  0  0  0  0  0  0  0
    4.2069    6.8450   20.7994 C   0  0  0  0  0  0  0  0  0  0  0  0
    3.0726   10.1043   19.8522 O   0  0  0  0  0  0  0  0  0  0  0  0
    5.5057    7.1196   21.1155 C   0  0  0  0  0  0  0  0  0  0  0  0
    7.0367   11.0229   21.9948 O   0  0  0  0  0  0  0  0  0  0  0  0
  1  8  4  0
  1 12  4  0
  2  9  1  0
  2 11  4  0
  2 25  4  0
  3 12  4  0
  3 14  1  0
  3 23  4  0
  4 13  4  0
  4 21  4  0
  4 24  1  0
  5  8  4  0
  5 23  4  0
  6 18  2  0
  7 15  4  0
  7 16  1  0
  7 27  4  0
  8 18  1  0
 10 18  1  0
 10 20  1  0
 11 15  4  0
 11 26  1  0
 13 22  4  0
 16 19  1  0
 16 20  2  0
 17 19  4  0
 17 21  4  0
 19 22  4  0
 20 28  1  0
 25 27  4  0
M  END
$$$$

 Created by Python create_sdf_string function

 28 30  0  0  0  0  0  0  0  0999 V2000
   11.4592   11.2893   18.7941 C   0  0  0  0  0  0  0  0  0  0  0  0
    3.4202    7.9009   20.3866 C   0  0  0  0  0  0  0  0  0  0  0  0
   13.5280   10.3522   19.3586 C   0  0  0  0  0  0  0  0  0  0  0  0
    9.6923    5.6468   22.7891 C   0  0  0  0  0  0  0  0  0  0  0  0
   11.7756   10.2554   20.8841 N   0  0  0  0  0  0  0  0  0  0  0  0
    8.9876   11.9370   19.8757 O   0  0  0  0  0  0  0  0  0  0  0  0
    6.0167    8.4478   21.1089 C   0  0  0  0  0  0  0  0  0  0  0  0
   11.0002   10.8890   20.0262 C   0  0  0  0  0  0  0  0  0  0  0  0
    2.1721    7.7393   20.0315 O   0  0  0  0  0  0  0  0  0  0  0  0
    9.1107   10.3880   21.3769 N   0  0  0  0  0  0  0  0  0  0  0  0
    3.9102    9.2008   20.3124 C   0  0  0  0  0  0  0  0  0  0  0  0
   12.7292   10.9960   18.4597 C   0  0  0  0  0  0  0  0  0  0  0  0
    9.3798    6.6793   23.6625 C   0  0  0  0  0  0  0  0  0  0  0  0
   14.7425   10.0739   19.0802 O   0  0  0  0  0  0  0  0  0  0  0  0
    5.1894    9.4673   20.7118 C   0  0  0  0  0  0  0  0  0  0  0  0
    7.3773    8.8224   21.4870 C   0  0  0  0  0  0  0  0  0  0  0  0
    8.4391    6.6439   21.0235 C   0  0  0  0  0  0  0  0  0  0  0  0
    9.6494   11.1353   20.4167 C   0  0  0  0  0  0  0  0  0  0  0  0
    8.1431    7.6829   21.9046 C   0  0  0  0  0  0  0  0  0  0  0  0
    7.7796   10.1314   21.5115 N   0  0  0  0  0  0  0  0  0  0  0  0
    9.2768    5.6183   21.4437 C   0  0  0  0  0  0  0  0  0  0  0  0
    8.6315    7.7322   23.1768 C   0  0  0  0  0  0  0  0  0  0  0  0
   13.0537    9.9821   20.5781 C   0  0  0  0  0  0  0  0  0  0  0  0
   10.3850    4.6575   23.2386 O   0  0  0  0  0  0  0  0  0  0  0  0
    4.2069    6.8450   20.7994 C   0  0  0  0  0  0  0  0  0  0  0  0
    3.0726   10.1043   19.8522 O   0  0  0  0  0  0  0  0  0  0  0  0
    5.5057    7.1196   21.1155 C   0  0  0  0  0  0  0  0  0  0  0  0
    7.0367   11.0229   21.9948 O   0  0  0  0  0  0  0  0  0  0  0  0
  1  8  4  0
  1 12  4  0
  2  9  1  0
  2 11  4  0
  2 25  4  0
  3 12  4  0
  3 14  1  0
  3 23  4  0
  4 13  4  0
  4 21  4  0
  4 24  1  0
  5  8  4  0
  5 23  4  0
  6 18  2  0
  7 15  4  0
  7 16  1  0
  7 27  4  0
  8 18  1  0
 10 18  1  0
 10 20  1  0
 11 15  4  0
 11 26  1  0
 13 22  4  0
 16 19  1  0
 16 20  2  0
 17 19  4  0
 17 21  4  0
 19 22  4  0
 20 28  1  0
 25 27  4  0
M  END
$$$$

 Created by Python create_sdf_string function

 28 30  0  0  0  0  0  0  0  0999 V2000
   11.4592   11.2893   18.7941 C   0  0  0  0  0  0  0  0  0  0  0  0
    3.4202    7.9009   20.3866 C   0  0  0  0  0  0  0  0  0  0  0  0
   13.5280   10.3522   19.3586 C   0  0  0  0  0  0  0  0  0  0  0  0
    9.6923    5.6468   22.7891 C   0  0  0  0  0  0  0  0  0  0  0  0
   11.7756   10.2554   20.8841 N   0  0  0  0  0  0  0  0  0  0  0  0
    8.9876   11.9370   19.8757 O   0  0  0  0  0  0  0  0  0  0  0  0
    6.0167    8.4478   21.1089 C   0  0  0  0  0  0  0  0  0  0  0  0
   11.0002   10.8890   20.0262 C   0  0  0  0  0  0  0  0  0  0  0  0
    2.1721    7.7393   20.0315 O   0  0  0  0  0  0  0  0  0  0  0  0
    9.1107   10.3880   21.3769 N   0  0  0  0  0  0  0  0  0  0  0  0
    3.9102    9.2008   20.3124 C   0  0  0  0  0  0  0  0  0  0  0  0
   12.7292   10.9960   18.4597 C   0  0  0  0  0  0  0  0  0  0  0  0
    9.3798    6.6793   23.6625 C   0  0  0  0  0  0  0  0  0  0  0  0
   14.7425   10.0739   19.0802 O   0  0  0  0  0  0  0  0  0  0  0  0
    5.1894    9.4673   20.7118 C   0  0  0  0  0  0  0  0  0  0  0  0
    7.3773    8.8224   21.4870 C   0  0  0  0  0  0  0  0  0  0  0  0
    8.4391    6.6439   21.0235 C   0  0  0  0  0  0  0  0  0  0  0  0
    9.6494   11.1353   20.4167 C   0  0  0  0  0  0  0  0  0  0  0  0
    8.1431    7.6829   21.9046 C   0  0  0  0  0  0  0  0  0  0  0  0
    7.7796   10.1314   21.5115 N   0  0  0  0  0  0  0  0  0  0  0  0
    9.2768    5.6183   21.4437 C   0  0  0  0  0  0  0  0  0  0  0  0
    8.6315    7.7322   23.1768 C   0  0  0  0  0  0  0  0  0  0  0  0
   13.0537    9.9821   20.5781 C   0  0  0  0  0  0  0  0  0  0  0  0
   10.3850    4.6575   23.2386 O   0  0  0  0  0  0  0  0  0  0  0  0
    4.2069    6.8450   20.7994 C   0  0  0  0  0  0  0  0  0  0  0  0
    3.0726   10.1043   19.8522 O   0  0  0  0  0  0  0  0  0  0  0  0
    5.5057    7.1196   21.1155 C   0  0  0  0  0  0  0  0  0  0  0  0
    7.0367   11.0229   21.9948 O   0  0  0  0  0  0  0  0  0  0  0  0
  1  8  4  0
  1 12  4  0
  2  9  1  0
  2 11  4  0
  2 25  4  0
  3 12  4  0
  3 14  1  0
  3 23  4  0
  4 13  4  0
  4 21  4  0
  4 24  1  0
  5  8  4  0
  5 23  4  0
  6 18  2  0
  7 15  4  0
  7 16  1  0
  7 27  4  0
  8 18  1  0
 10 18  1  0
 10 20  1  0
 11 15  4  0
 11 26  1  0
 13 22  4  0
 16 19  1  0
 16 20  2  0
 17 19  4  0
 17 21  4  0
 19 22  4  0
 20 28  1  0
 25 27  4  0
M  END
$$$$

 Created by Python create_sdf_string function

 28 30  0  0  0  0  0  0  0  0999 V2000
   11.4592   11.2893   18.7941 C   0  0  0  0  0  0  0  0  0  0  0  0
    3.4202    7.9009   20.3866 C   0  0  0  0  0  0  0  0  0  0  0  0
   13.5280   10.3522   19.3586 C   0  0  0  0  0  0  0  0  0  0  0  0
    9.6923    5.6468   22.7891 C   0  0  0  0  0  0  0  0  0  0  0  0
   11.7756   10.2554   20.8841 N   0  0  0  0  0  0  0  0  0  0  0  0
    8.9876   11.9370   19.8757 O   0  0  0  0  0  0  0  0  0  0  0  0
    6.0167    8.4478   21.1089 C   0  0  0  0  0  0  0  0  0  0  0  0
   11.0002   10.8890   20.0262 C   0  0  0  0  0  0  0  0  0  0  0  0
    2.1721    7.7393   20.0315 O   0  0  0  0  0  0  0  0  0  0  0  0
    9.1107   10.3880   21.3769 N   0  0  0  0  0  0  0  0  0  0  0  0
    3.9102    9.2008   20.3124 C   0  0  0  0  0  0  0  0  0  0  0  0
   12.7292   10.9960   18.4597 C   0  0  0  0  0  0  0  0  0  0  0  0
    9.3798    6.6793   23.6625 C   0  0  0  0  0  0  0  0  0  0  0  0
   14.7425   10.0739   19.0802 O   0  0  0  0  0  0  0  0  0  0  0  0
    5.1894    9.4673   20.7118 C   0  0  0  0  0  0  0  0  0  0  0  0
    7.3773    8.8224   21.4870 C   0  0  0  0  0  0  0  0  0  0  0  0
    8.4391    6.6439   21.0235 C   0  0  0  0  0  0  0  0  0  0  0  0
    9.6494   11.1353   20.4167 C   0  0  0  0  0  0  0  0  0  0  0  0
    8.1431    7.6829   21.9046 C   0  0  0  0  0  0  0  0  0  0  0  0
    7.7796   10.1314   21.5115 N   0  0  0  0  0  0  0  0  0  0  0  0
    9.2768    5.6183   21.4437 C   0  0  0  0  0  0  0  0  0  0  0  0
    8.6315    7.7322   23.1768 C   0  0  0  0  0  0  0  0  0  0  0  0
   13.0537    9.9821   20.5781 C   0  0  0  0  0  0  0  0  0  0  0  0
   10.3850    4.6575   23.2386 O   0  0  0  0  0  0  0  0  0  0  0  0
    4.2069    6.8450   20.7994 C   0  0  0  0  0  0  0  0  0  0  0  0
    3.0726   10.1043   19.8522 O   0  0  0  0  0  0  0  0  0  0  0  0
    5.5057    7.1196   21.1155 C   0  0  0  0  0  0  0  0  0  0  0  0
    7.0367   11.0229   21.9948 O   0  0  0  0  0  0  0  0  0  0  0  0
  1  8  4  0
  1 12  4  0
  2  9  1  0
  2 11  4  0
  2 25  4  0
  3 12  4  0
  3 14  1  0
  3 23  4  0
  4 13  4  0
  4 21  4  0
  4 24  1  0
  5  8  4  0
  5 23  4  0
  6 18  2  0
  7 15  4  0
  7 16  1  0
  7 27  4  0
  8 18  1  0
 10 18  1  0
 10 20  1  0
 11 15  4  0
 11 26  1  0
 13 22  4  0
 16 19  1  0
 16 20  2  0
 17 19  4  0
 17 21  4  0
 19 22  4  0
 20 28  1  0
 25 27  4  0
M  END
$$$$

 Created by Python create_sdf_string function

 28 30  0  0  0  0  0  0  0  0999 V2000
   11.4592   11.2893   18.7941 C   0  0  0  0  0  0  0  0  0  0  0  0
    3.4202    7.9009   20.3866 C   0  0  0  0  0  0  0  0  0  0  0  0
   13.5280   10.3522   19.3586 C   0  0  0  0  0  0  0  0  0  0  0  0
    9.6923    5.6468   22.7891 C   0  0  0  0  0  0  0  0  0  0  0  0
   11.7756   10.2554   20.8841 N   0  0  0  0  0  0  0  0  0  0  0  0
    8.9876   11.9370   19.8757 O   0  0  0  0  0  0  0  0  0  0  0  0
    6.0167    8.4478   21.1089 C   0  0  0  0  0  0  0  0  0  0  0  0
   11.0002   10.8890   20.0262 C   0  0  0  0  0  0  0  0  0  0  0  0
    2.1721    7.7393   20.0315 O   0  0  0  0  0  0  0  0  0  0  0  0
    9.1107   10.3880   21.3769 N   0  0  0  0  0  0  0  0  0  0  0  0
    3.9102    9.2008   20.3124 C   0  0  0  0  0  0  0  0  0  0  0  0
   12.7292   10.9960   18.4597 C   0  0  0  0  0  0  0  0  0  0  0  0
    9.3798    6.6793   23.6625 C   0  0  0  0  0  0  0  0  0  0  0  0
   14.7425   10.0739   19.0802 O   0  0  0  0  0  0  0  0  0  0  0  0
    5.1894    9.4673   20.7118 C   0  0  0  0  0  0  0  0  0  0  0  0
    7.3773    8.8224   21.4870 C   0  0  0  0  0  0  0  0  0  0  0  0
    8.4391    6.6439   21.0235 C   0  0  0  0  0  0  0  0  0  0  0  0
    9.6494   11.1353   20.4167 C   0  0  0  0  0  0  0  0  0  0  0  0
    8.1431    7.6829   21.9046 C   0  0  0  0  0  0  0  0  0  0  0  0
    7.7796   10.1314   21.5115 N   0  0  0  0  0  0  0  0  0  0  0  0
    9.2768    5.6183   21.4437 C   0  0  0  0  0  0  0  0  0  0  0  0
    8.6315    7.7322   23.1768 C   0  0  0  0  0  0  0  0  0  0  0  0
   13.0537    9.9821   20.5781 C   0  0  0  0  0  0  0  0  0  0  0  0
   10.3850    4.6575   23.2386 O   0  0  0  0  0  0  0  0  0  0  0  0
    4.2069    6.8450   20.7994 C   0  0  0  0  0  0  0  0  0  0  0  0
    3.0726   10.1043   19.8522 O   0  0  0  0  0  0  0  0  0  0  0  0
    5.5057    7.1196   21.1155 C   0  0  0  0  0  0  0  0  0  0  0  0
    7.0367   11.0229   21.9948 O   0  0  0  0  0  0  0  0  0  0  0  0
  1  8  4  0
  1 12  4  0
  2  9  1  0
  2 11  4  0
  2 25  4  0
  3 12  4  0
  3 14  1  0
  3 23  4  0
  4 13  4  0
  4 21  4  0
  4 24  1  0
  5  8  4  0
  5 23  4  0
  6 18  2  0
  7 15  4  0
  7 16  1  0
  7 27  4  0
  8 18  1  0
 10 18  1  0
 10 20  1  0
 11 15  4  0
 11 26  1  0
 13 22  4  0
 16 19  1  0
 16 20  2  0
 17 19  4  0
 17 21  4  0
 19 22  4  0
 20 28  1  0
 25 27  4  0
M  END
$$$$

 Created by Python create_sdf_string function

 28 30  0  0  0  0  0  0  0  0999 V2000
   11.4592   11.2893   18.7941 C   0  0  0  0  0  0  0  0  0  0  0  0
    3.4202    7.9009   20.3866 C   0  0  0  0  0  0  0  0  0  0  0  0
   13.5280   10.3522   19.3586 C   0  0  0  0  0  0  0  0  0  0  0  0
    9.6923    5.6468   22.7891 C   0  0  0  0  0  0  0  0  0  0  0  0
   11.7756   10.2554   20.8841 N   0  0  0  0  0  0  0  0  0  0  0  0
    8.9876   11.9370   19.8757 O   0  0  0  0  0  0  0  0  0  0  0  0
    6.0167    8.4478   21.1089 C   0  0  0  0  0  0  0  0  0  0  0  0
   11.0002   10.8890   20.0262 C   0  0  0  0  0  0  0  0  0  0  0  0
    2.1721    7.7393   20.0315 O   0  0  0  0  0  0  0  0  0  0  0  0
    9.1107   10.3880   21.3769 N   0  0  0  0  0  0  0  0  0  0  0  0
    3.9102    9.2008   20.3124 C   0  0  0  0  0  0  0  0  0  0  0  0
   12.7292   10.9960   18.4597 C   0  0  0  0  0  0  0  0  0  0  0  0
    9.3798    6.6793   23.6625 C   0  0  0  0  0  0  0  0  0  0  0  0
   14.7425   10.0739   19.0802 O   0  0  0  0  0  0  0  0  0  0  0  0
    5.1894    9.4673   20.7118 C   0  0  0  0  0  0  0  0  0  0  0  0
    7.3773    8.8224   21.4870 C   0  0  0  0  0  0  0  0  0  0  0  0
    8.4391    6.6439   21.0235 C   0  0  0  0  0  0  0  0  0  0  0  0
    9.6494   11.1353   20.4167 C   0  0  0  0  0  0  0  0  0  0  0  0
    8.1431    7.6829   21.9046 C   0  0  0  0  0  0  0  0  0  0  0  0
    7.7796   10.1314   21.5115 N   0  0  0  0  0  0  0  0  0  0  0  0
    9.2768    5.6183   21.4437 C   0  0  0  0  0  0  0  0  0  0  0  0
    8.6315    7.7322   23.1768 C   0  0  0  0  0  0  0  0  0  0  0  0
   13.0537    9.9821   20.5781 C   0  0  0  0  0  0  0  0  0  0  0  0
   10.3850    4.6575   23.2386 O   0  0  0  0  0  0  0  0  0  0  0  0
    4.2069    6.8450   20.7994 C   0  0  0  0  0  0  0  0  0  0  0  0
    3.0726   10.1043   19.8522 O   0  0  0  0  0  0  0  0  0  0  0  0
    5.5057    7.1196   21.1155 C   0  0  0  0  0  0  0  0  0  0  0  0
    7.0367   11.0229   21.9948 O   0  0  0  0  0  0  0  0  0  0  0  0
  1  8  4  0
  1 12  4  0
  2  9  1  0
  2 11  4  0
  2 25  4  0
  3 12  4  0
  3 14  1  0
  3 23  4  0
  4 13  4  0
  4 21  4  0
  4 24  1  0
  5  8  4  0
  5 23  4  0
  6 18  2  0
  7 15  4  0
  7 16  1  0
  7 27  4  0
  8 18  1  0
 10 18  1  0
 10 20  1  0
 11 15  4  0
 11 26  1  0
 13 22  4  0
 16 19  1  0
 16 20  2  0
 17 19  4  0
 17 21  4  0
 19 22  4  0
 20 28  1  0
 25 27  4  0
M  END
$$$$

 Created by Python create_sdf_string function

 28 30  0  0  0  0  0  0  0  0999 V2000
   11.4592   11.2893   18.7941 C   0  0  0  0  0  0  0  0  0  0  0  0
    3.4202    7.9009   20.3866 C   0  0  0  0  0  0  0  0  0  0  0  0
   13.5280   10.3522   19.3586 C   0  0  0  0  0  0  0  0  0  0  0  0
    9.6923    5.6468   22.7891 C   0  0  0  0  0  0  0  0  0  0  0  0
   11.7756   10.2554   20.8841 N   0  0  0  0  0  0  0  0  0  0  0  0
    8.9876   11.9370   19.8757 O   0  0  0  0  0  0  0  0  0  0  0  0
    6.0167    8.4478   21.1089 C   0  0  0  0  0  0  0  0  0  0  0  0
   11.0002   10.8890   20.0262 C   0  0  0  0  0  0  0  0  0  0  0  0
    2.1721    7.7393   20.0315 O   0  0  0  0  0  0  0  0  0  0  0  0
    9.1107   10.3880   21.3769 N   0  0  0  0  0  0  0  0  0  0  0  0
    3.9102    9.2008   20.3124 C   0  0  0  0  0  0  0  0  0  0  0  0
   12.7292   10.9960   18.4597 C   0  0  0  0  0  0  0  0  0  0  0  0
    9.3798    6.6793   23.6625 C   0  0  0  0  0  0  0  0  0  0  0  0
   14.7425   10.0739   19.0802 O   0  0  0  0  0  0  0  0  0  0  0  0
    5.1894    9.4673   20.7118 C   0  0  0  0  0  0  0  0  0  0  0  0
    7.3773    8.8224   21.4870 C   0  0  0  0  0  0  0  0  0  0  0  0
    8.4391    6.6439   21.0235 C   0  0  0  0  0  0  0  0  0  0  0  0
    9.6494   11.1353   20.4167 C   0  0  0  0  0  0  0  0  0  0  0  0
    8.1431    7.6829   21.9046 C   0  0  0  0  0  0  0  0  0  0  0  0
    7.7796   10.1314   21.5115 N   0  0  0  0  0  0  0  0  0  0  0  0
    9.2768    5.6183   21.4437 C   0  0  0  0  0  0  0  0  0  0  0  0
    8.6315    7.7322   23.1768 C   0  0  0  0  0  0  0  0  0  0  0  0
   13.0537    9.9821   20.5781 C   0  0  0  0  0  0  0  0  0  0  0  0
   10.3850    4.6575   23.2386 O   0  0  0  0  0  0  0  0  0  0  0  0
    4.2069    6.8450   20.7994 C   0  0  0  0  0  0  0  0  0  0  0  0
    3.0726   10.1043   19.8522 O   0  0  0  0  0  0  0  0  0  0  0  0
    5.5057    7.1196   21.1155 C   0  0  0  0  0  0  0  0  0  0  0  0
    7.0367   11.0229   21.9948 O   0  0  0  0  0  0  0  0  0  0  0  0
  1  8  4  0
  1 12  4  0
  2  9  1  0
  2 11  4  0
  2 25  4  0
  3 12  4  0
  3 14  1  0
  3 23  4  0
  4 13  4  0
  4 21  4  0
  4 24  1  0
  5  8  4  0
  5 23  4  0
  6 18  2  0
  7 15  4  0
  7 16  1  0
  7 27  4  0
  8 18  1  0
 10 18  1  0
 10 20  1  0
 11 15  4  0
 11 26  1  0
 13 22  4  0
 16 19  1  0
 16 20  2  0
 17 19  4  0
 17 21  4  0
 19 22  4  0
 20 28  1  0
 25 27  4  0
M  END
$$$$

 Created by Python create_sdf_string function

 28 30  0  0  0  0  0  0  0  0999 V2000
   11.4592   11.2893   18.7941 C   0  0  0  0  0  0  0  0  0  0  0  0
    3.4202    7.9009   20.3866 C   0  0  0  0  0  0  0  0  0  0  0  0
   13.5280   10.3522   19.3586 C   0  0  0  0  0  0  0  0  0  0  0  0
    9.6923    5.6468   22.7891 C   0  0  0  0  0  0  0  0  0  0  0  0
   11.7756   10.2554   20.8841 N   0  0  0  0  0  0  0  0  0  0  0  0
    8.9876   11.9370   19.8757 O   0  0  0  0  0  0  0  0  0  0  0  0
    6.0167    8.4478   21.1089 C   0  0  0  0  0  0  0  0  0  0  0  0
   11.0002   10.8890   20.0262 C   0  0  0  0  0  0  0  0  0  0  0  0
    2.1721    7.7393   20.0315 O   0  0  0  0  0  0  0  0  0  0  0  0
    9.1107   10.3880   21.3769 N   0  0  0  0  0  0  0  0  0  0  0  0
    3.9102    9.2008   20.3124 C   0  0  0  0  0  0  0  0  0  0  0  0
   12.7292   10.9960   18.4597 C   0  0  0  0  0  0  0  0  0  0  0  0
    9.3798    6.6793   23.6625 C   0  0  0  0  0  0  0  0  0  0  0  0
   14.7425   10.0739   19.0802 O   0  0  0  0  0  0  0  0  0  0  0  0
    5.1894    9.4673   20.7118 C   0  0  0  0  0  0  0  0  0  0  0  0
    7.3773    8.8224   21.4870 C   0  0  0  0  0  0  0  0  0  0  0  0
    8.4391    6.6439   21.0235 C   0  0  0  0  0  0  0  0  0  0  0  0
    9.6494   11.1353   20.4167 C   0  0  0  0  0  0  0  0  0  0  0  0
    8.1431    7.6829   21.9046 C   0  0  0  0  0  0  0  0  0  0  0  0
    7.7796   10.1314   21.5115 N   0  0  0  0  0  0  0  0  0  0  0  0
    9.2768    5.6183   21.4437 C   0  0  0  0  0  0  0  0  0  0  0  0
    8.6315    7.7322   23.1768 C   0  0  0  0  0  0  0  0  0  0  0  0
   13.0537    9.9821   20.5781 C   0  0  0  0  0  0  0  0  0  0  0  0
   10.3850    4.6575   23.2386 O   0  0  0  0  0  0  0  0  0  0  0  0
    4.2069    6.8450   20.7994 C   0  0  0  0  0  0  0  0  0  0  0  0
    3.0726   10.1043   19.8522 O   0  0  0  0  0  0  0  0  0  0  0  0
    5.5057    7.1196   21.1155 C   0  0  0  0  0  0  0  0  0  0  0  0
    7.0367   11.0229   21.9948 O   0  0  0  0  0  0  0  0  0  0  0  0
  1  8  4  0
  1 12  4  0
  2  9  1  0
  2 11  4  0
  2 25  4  0
  3 12  4  0
  3 14  1  0
  3 23  4  0
  4 13  4  0
  4 21  4  0
  4 24  1  0
  5  8  4  0
  5 23  4  0
  6 18  2  0
  7 15  4  0
  7 16  1  0
  7 27  4  0
  8 18  1  0
 10 18  1  0
 10 20  1  0
 11 15  4  0
 11 26  1  0
 13 22  4  0
 16 19  1  0
 16 20  2  0
 17 19  4  0
 17 21  4  0
 19 22  4  0
 20 28  1  0
 25 27  4  0
M  END
$$$$

 Created by Python create_sdf_string function

 28 30  0  0  0  0  0  0  0  0999 V2000
   11.4592   11.2893   18.7941 C   0  0  0  0  0  0  0  0  0  0  0  0
    3.4202    7.9009   20.3866 C   0  0  0  0  0  0  0  0  0  0  0  0
   13.5280   10.3522   19.3586 C   0  0  0  0  0  0  0  0  0  0  0  0
    9.6923    5.6468   22.7891 C   0  0  0  0  0  0  0  0  0  0  0  0
   11.7756   10.2554   20.8841 N   0  0  0  0  0  0  0  0  0  0  0  0
    8.9876   11.9370   19.8757 O   0  0  0  0  0  0  0  0  0  0  0  0
    6.0167    8.4478   21.1089 C   0  0  0  0  0  0  0  0  0  0  0  0
   11.0002   10.8890   20.0262 C   0  0  0  0  0  0  0  0  0  0  0  0
    2.1721    7.7393   20.0315 O   0  0  0  0  0  0  0  0  0  0  0  0
    9.1107   10.3880   21.3769 N   0  0  0  0  0  0  0  0  0  0  0  0
    3.9102    9.2008   20.3124 C   0  0  0  0  0  0  0  0  0  0  0  0
   12.7292   10.9960   18.4597 C   0  0  0  0  0  0  0  0  0  0  0  0
    9.3798    6.6793   23.6625 C   0  0  0  0  0  0  0  0  0  0  0  0
   14.7425   10.0739   19.0802 O   0  0  0  0  0  0  0  0  0  0  0  0
    5.1894    9.4673   20.7118 C   0  0  0  0  0  0  0  0  0  0  0  0
    7.3773    8.8224   21.4870 C   0  0  0  0  0  0  0  0  0  0  0  0
    8.4391    6.6439   21.0235 C   0  0  0  0  0  0  0  0  0  0  0  0
    9.6494   11.1353   20.4167 C   0  0  0  0  0  0  0  0  0  0  0  0
    8.1431    7.6829   21.9046 C   0  0  0  0  0  0  0  0  0  0  0  0
    7.7796   10.1314   21.5115 N   0  0  0  0  0  0  0  0  0  0  0  0
    9.2768    5.6183   21.4437 C   0  0  0  0  0  0  0  0  0  0  0  0
    8.6315    7.7322   23.1768 C   0  0  0  0  0  0  0  0  0  0  0  0
   13.0537    9.9821   20.5781 C   0  0  0  0  0  0  0  0  0  0  0  0
   10.3850    4.6575   23.2386 O   0  0  0  0  0  0  0  0  0  0  0  0
    4.2069    6.8450   20.7994 C   0  0  0  0  0  0  0  0  0  0  0  0
    3.0726   10.1043   19.8522 O   0  0  0  0  0  0  0  0  0  0  0  0
    5.5057    7.1196   21.1155 C   0  0  0  0  0  0  0  0  0  0  0  0
    7.0367   11.0229   21.9948 O   0  0  0  0  0  0  0  0  0  0  0  0
  1  8  4  0
  1 12  4  0
  2  9  1  0
  2 11  4  0
  2 25  4  0
  3 12  4  0
  3 14  1  0
  3 23  4  0
  4 13  4  0
  4 21  4  0
  4 24  1  0
  5  8  4  0
  5 23  4  0
  6 18  2  0
  7 15  4  0
  7 16  1  0
  7 27  4  0
  8 18  1  0
 10 18  1  0
 10 20  1  0
 11 15  4  0
 11 26  1  0
 13 22  4  0
 16 19  1  0
 16 20  2  0
 17 19  4  0
 17 21  4  0
 19 22  4  0
 20 28  1  0
 25 27  4  0
M  END
$$$$

 Created by Python create_sdf_string function

 28 30  0  0  0  0  0  0  0  0999 V2000
   11.4592   11.2893   18.7941 C   0  0  0  0  0  0  0  0  0  0  0  0
    3.4202    7.9009   20.3866 C   0  0  0  0  0  0  0  0  0  0  0  0
   13.5280   10.3522   19.3586 C   0  0  0  0  0  0  0  0  0  0  0  0
    9.6923    5.6468   22.7891 C   0  0  0  0  0  0  0  0  0  0  0  0
   11.7756   10.2554   20.8841 N   0  0  0  0  0  0  0  0  0  0  0  0
    8.9876   11.9370   19.8757 O   0  0  0  0  0  0  0  0  0  0  0  0
    6.0167    8.4478   21.1089 C   0  0  0  0  0  0  0  0  0  0  0  0
   11.0002   10.8890   20.0262 C   0  0  0  0  0  0  0  0  0  0  0  0
    2.1721    7.7393   20.0315 O   0  0  0  0  0  0  0  0  0  0  0  0
    9.1107   10.3880   21.3769 N   0  0  0  0  0  0  0  0  0  0  0  0
    3.9102    9.2008   20.3124 C   0  0  0  0  0  0  0  0  0  0  0  0
   12.7292   10.9960   18.4597 C   0  0  0  0  0  0  0  0  0  0  0  0
    9.3798    6.6793   23.6625 C   0  0  0  0  0  0  0  0  0  0  0  0
   14.7425   10.0739   19.0802 O   0  0  0  0  0  0  0  0  0  0  0  0
    5.1894    9.4673   20.7118 C   0  0  0  0  0  0  0  0  0  0  0  0
    7.3773    8.8224   21.4870 C   0  0  0  0  0  0  0  0  0  0  0  0
    8.4391    6.6439   21.0235 C   0  0  0  0  0  0  0  0  0  0  0  0
    9.6494   11.1353   20.4167 C   0  0  0  0  0  0  0  0  0  0  0  0
    8.1431    7.6829   21.9046 C   0  0  0  0  0  0  0  0  0  0  0  0
    7.7796   10.1314   21.5115 N   0  0  0  0  0  0  0  0  0  0  0  0
    9.2768    5.6183   21.4437 C   0  0  0  0  0  0  0  0  0  0  0  0
    8.6315    7.7322   23.1768 C   0  0  0  0  0  0  0  0  0  0  0  0
   13.0537    9.9821   20.5781 C   0  0  0  0  0  0  0  0  0  0  0  0
   10.3850    4.6575   23.2386 O   0  0  0  0  0  0  0  0  0  0  0  0
    4.2069    6.8450   20.7994 C   0  0  0  0  0  0  0  0  0  0  0  0
    3.0726   10.1043   19.8522 O   0  0  0  0  0  0  0  0  0  0  0  0
    5.5057    7.1196   21.1155 C   0  0  0  0  0  0  0  0  0  0  0  0
    7.0367   11.0229   21.9948 O   0  0  0  0  0  0  0  0  0  0  0  0
  1  8  4  0
  1 12  4  0
  2  9  1  0
  2 11  4  0
  2 25  4  0
  3 12  4  0
  3 14  1  0
  3 23  4  0
  4 13  4  0
  4 21  4  0
  4 24  1  0
  5  8  4  0
  5 23  4  0
  6 18  2  0
  7 15  4  0
  7 16  1  0
  7 27  4  0
  8 18  1  0
 10 18  1  0
 10 20  1  0
 11 15  4  0
 11 26  1  0
 13 22  4  0
 16 19  1  0
 16 20  2  0
 17 19  4  0
 17 21  4  0
 19 22  4  0
 20 28  1  0
 25 27  4  0
M  END
$$$$

 Created by Python create_sdf_string function

 28 30  0  0  0  0  0  0  0  0999 V2000
   11.4592   11.2893   18.7941 C   0  0  0  0  0  0  0  0  0  0  0  0
    3.4202    7.9009   20.3866 C   0  0  0  0  0  0  0  0  0  0  0  0
   13.5280   10.3522   19.3586 C   0  0  0  0  0  0  0  0  0  0  0  0
    9.6923    5.6468   22.7891 C   0  0  0  0  0  0  0  0  0  0  0  0
   11.7756   10.2554   20.8841 N   0  0  0  0  0  0  0  0  0  0  0  0
    8.9876   11.9370   19.8757 O   0  0  0  0  0  0  0  0  0  0  0  0
    6.0167    8.4478   21.1089 C   0  0  0  0  0  0  0  0  0  0  0  0
   11.0002   10.8890   20.0262 C   0  0  0  0  0  0  0  0  0  0  0  0
    2.1721    7.7393   20.0315 O   0  0  0  0  0  0  0  0  0  0  0  0
    9.1107   10.3880   21.3769 N   0  0  0  0  0  0  0  0  0  0  0  0
    3.9102    9.2008   20.3124 C   0  0  0  0  0  0  0  0  0  0  0  0
   12.7292   10.9960   18.4597 C   0  0  0  0  0  0  0  0  0  0  0  0
    9.3798    6.6793   23.6625 C   0  0  0  0  0  0  0  0  0  0  0  0
   14.7425   10.0739   19.0802 O   0  0  0  0  0  0  0  0  0  0  0  0
    5.1894    9.4673   20.7118 C   0  0  0  0  0  0  0  0  0  0  0  0
    7.3773    8.8224   21.4870 C   0  0  0  0  0  0  0  0  0  0  0  0
    8.4391    6.6439   21.0235 C   0  0  0  0  0  0  0  0  0  0  0  0
    9.6494   11.1353   20.4167 C   0  0  0  0  0  0  0  0  0  0  0  0
    8.1431    7.6829   21.9046 C   0  0  0  0  0  0  0  0  0  0  0  0
    7.7796   10.1314   21.5115 N   0  0  0  0  0  0  0  0  0  0  0  0
    9.2768    5.6183   21.4437 C   0  0  0  0  0  0  0  0  0  0  0  0
    8.6315    7.7322   23.1768 C   0  0  0  0  0  0  0  0  0  0  0  0
   13.0537    9.9821   20.5781 C   0  0  0  0  0  0  0  0  0  0  0  0
   10.3850    4.6575   23.2386 O   0  0  0  0  0  0  0  0  0  0  0  0
    4.2069    6.8450   20.7994 C   0  0  0  0  0  0  0  0  0  0  0  0
    3.0726   10.1043   19.8522 O   0  0  0  0  0  0  0  0  0  0  0  0
    5.5057    7.1196   21.1155 C   0  0  0  0  0  0  0  0  0  0  0  0
    7.0367   11.0229   21.9948 O   0  0  0  0  0  0  0  0  0  0  0  0
  1  8  4  0
  1 12  4  0
  2  9  1  0
  2 11  4  0
  2 25  4  0
  3 12  4  0
  3 14  1  0
  3 23  4  0
  4 13  4  0
  4 21  4  0
  4 24  1  0
  5  8  4  0
  5 23  4  0
  6 18  2  0
  7 15  4  0
  7 16  1  0
  7 27  4  0
  8 18  1  0
 10 18  1  0
 10 20  1  0
 11 15  4  0
 11 26  1  0
 13 22  4  0
 16 19  1  0
 16 20  2  0
 17 19  4  0
 17 21  4  0
 19 22  4  0
 20 28  1  0
 25 27  4  0
M  END
$$$$

 Created by Python create_sdf_string function

 28 30  0  0  0  0  0  0  0  0999 V2000
   11.4592   11.2893   18.7941 C   0  0  0  0  0  0  0  0  0  0  0  0
    3.4202    7.9009   20.3866 C   0  0  0  0  0  0  0  0  0  0  0  0
   13.5280   10.3522   19.3586 C   0  0  0  0  0  0  0  0  0  0  0  0
    9.6923    5.6468   22.7891 C   0  0  0  0  0  0  0  0  0  0  0  0
   11.7756   10.2554   20.8841 N   0  0  0  0  0  0  0  0  0  0  0  0
    8.9876   11.9370   19.8757 O   0  0  0  0  0  0  0  0  0  0  0  0
    6.0167    8.4478   21.1089 C   0  0  0  0  0  0  0  0  0  0  0  0
   11.0002   10.8890   20.0262 C   0  0  0  0  0  0  0  0  0  0  0  0
    2.1721    7.7393   20.0315 O   0  0  0  0  0  0  0  0  0  0  0  0
    9.1107   10.3880   21.3769 N   0  0  0  0  0  0  0  0  0  0  0  0
    3.9102    9.2008   20.3124 C   0  0  0  0  0  0  0  0  0  0  0  0
   12.7292   10.9960   18.4597 C   0  0  0  0  0  0  0  0  0  0  0  0
    9.3798    6.6793   23.6625 C   0  0  0  0  0  0  0  0  0  0  0  0
   14.7425   10.0739   19.0802 O   0  0  0  0  0  0  0  0  0  0  0  0
    5.1894    9.4673   20.7118 C   0  0  0  0  0  0  0  0  0  0  0  0
    7.3773    8.8224   21.4870 C   0  0  0  0  0  0  0  0  0  0  0  0
    8.4391    6.6439   21.0235 C   0  0  0  0  0  0  0  0  0  0  0  0
    9.6494   11.1353   20.4167 C   0  0  0  0  0  0  0  0  0  0  0  0
    8.1431    7.6829   21.9046 C   0  0  0  0  0  0  0  0  0  0  0  0
    7.7796   10.1314   21.5115 N   0  0  0  0  0  0  0  0  0  0  0  0
    9.2768    5.6183   21.4437 C   0  0  0  0  0  0  0  0  0  0  0  0
    8.6315    7.7322   23.1768 C   0  0  0  0  0  0  0  0  0  0  0  0
   13.0537    9.9821   20.5781 C   0  0  0  0  0  0  0  0  0  0  0  0
   10.3850    4.6575   23.2386 O   0  0  0  0  0  0  0  0  0  0  0  0
    4.2069    6.8450   20.7994 C   0  0  0  0  0  0  0  0  0  0  0  0
    3.0726   10.1043   19.8522 O   0  0  0  0  0  0  0  0  0  0  0  0
    5.5057    7.1196   21.1155 C   0  0  0  0  0  0  0  0  0  0  0  0
    7.0367   11.0229   21.9948 O   0  0  0  0  0  0  0  0  0  0  0  0
  1  8  4  0
  1 12  4  0
  2  9  1  0
  2 11  4  0
  2 25  4  0
  3 12  4  0
  3 14  1  0
  3 23  4  0
  4 13  4  0
  4 21  4  0
  4 24  1  0
  5  8  4  0
  5 23  4  0
  6 18  2  0
  7 15  4  0
  7 16  1  0
  7 27  4  0
  8 18  1  0
 10 18  1  0
 10 20  1  0
 11 15  4  0
 11 26  1  0
 13 22  4  0
 16 19  1  0
 16 20  2  0
 17 19  4  0
 17 21  4  0
 19 22  4  0
 20 28  1  0
 25 27  4  0
M  END
$$$$

 Created by Python create_sdf_string function

 28 30  0  0  0  0  0  0  0  0999 V2000
   11.4592   11.2893   18.7941 C   0  0  0  0  0  0  0  0  0  0  0  0
    3.4202    7.9009   20.3866 C   0  0  0  0  0  0  0  0  0  0  0  0
   13.5280   10.3522   19.3586 C   0  0  0  0  0  0  0  0  0  0  0  0
    9.6923    5.6468   22.7891 C   0  0  0  0  0  0  0  0  0  0  0  0
   11.7756   10.2554   20.8841 N   0  0  0  0  0  0  0  0  0  0  0  0
    8.9876   11.9370   19.8757 O   0  0  0  0  0  0  0  0  0  0  0  0
    6.0167    8.4478   21.1089 C   0  0  0  0  0  0  0  0  0  0  0  0
   11.0002   10.8890   20.0262 C   0  0  0  0  0  0  0  0  0  0  0  0
    2.1721    7.7393   20.0315 O   0  0  0  0  0  0  0  0  0  0  0  0
    9.1107   10.3880   21.3769 N   0  0  0  0  0  0  0  0  0  0  0  0
    3.9102    9.2008   20.3124 C   0  0  0  0  0  0  0  0  0  0  0  0
   12.7292   10.9960   18.4597 C   0  0  0  0  0  0  0  0  0  0  0  0
    9.3798    6.6793   23.6625 C   0  0  0  0  0  0  0  0  0  0  0  0
   14.7425   10.0739   19.0802 O   0  0  0  0  0  0  0  0  0  0  0  0
    5.1894    9.4673   20.7118 C   0  0  0  0  0  0  0  0  0  0  0  0
    7.3773    8.8224   21.4870 C   0  0  0  0  0  0  0  0  0  0  0  0
    8.4391    6.6439   21.0235 C   0  0  0  0  0  0  0  0  0  0  0  0
    9.6494   11.1353   20.4167 C   0  0  0  0  0  0  0  0  0  0  0  0
    8.1431    7.6829   21.9046 C   0  0  0  0  0  0  0  0  0  0  0  0
    7.7796   10.1314   21.5115 N   0  0  0  0  0  0  0  0  0  0  0  0
    9.2768    5.6183   21.4437 C   0  0  0  0  0  0  0  0  0  0  0  0
    8.6315    7.7322   23.1768 C   0  0  0  0  0  0  0  0  0  0  0  0
   13.0537    9.9821   20.5781 C   0  0  0  0  0  0  0  0  0  0  0  0
   10.3850    4.6575   23.2386 O   0  0  0  0  0  0  0  0  0  0  0  0
    4.2069    6.8450   20.7994 C   0  0  0  0  0  0  0  0  0  0  0  0
    3.0726   10.1043   19.8522 O   0  0  0  0  0  0  0  0  0  0  0  0
    5.5057    7.1196   21.1155 C   0  0  0  0  0  0  0  0  0  0  0  0
    7.0367   11.0229   21.9948 O   0  0  0  0  0  0  0  0  0  0  0  0
  1  8  4  0
  1 12  4  0
  2  9  1  0
  2 11  4  0
  2 25  4  0
  3 12  4  0
  3 14  1  0
  3 23  4  0
  4 13  4  0
  4 21  4  0
  4 24  1  0
  5  8  4  0
  5 23  4  0
  6 18  2  0
  7 15  4  0
  7 16  1  0
  7 27  4  0
  8 18  1  0
 10 18  1  0
 10 20  1  0
 11 15  4  0
 11 26  1  0
 13 22  4  0
 16 19  1  0
 16 20  2  0
 17 19  4  0
 17 21  4  0
 19 22  4  0
 20 28  1  0
 25 27  4  0
M  END
$$$$

 Created by Python create_sdf_string function

 28 30  0  0  0  0  0  0  0  0999 V2000
   11.4592   11.2893   18.7941 C   0  0  0  0  0  0  0  0  0  0  0  0
    3.4202    7.9009   20.3866 C   0  0  0  0  0  0  0  0  0  0  0  0
   13.5280   10.3522   19.3586 C   0  0  0  0  0  0  0  0  0  0  0  0
    9.6923    5.6468   22.7891 C   0  0  0  0  0  0  0  0  0  0  0  0
   11.7756   10.2554   20.8841 N   0  0  0  0  0  0  0  0  0  0  0  0
    8.9876   11.9370   19.8757 O   0  0  0  0  0  0  0  0  0  0  0  0
    6.0167    8.4478   21.1089 C   0  0  0  0  0  0  0  0  0  0  0  0
   11.0002   10.8890   20.0262 C   0  0  0  0  0  0  0  0  0  0  0  0
    2.1721    7.7393   20.0315 O   0  0  0  0  0  0  0  0  0  0  0  0
    9.1107   10.3880   21.3769 N   0  0  0  0  0  0  0  0  0  0  0  0
    3.9102    9.2008   20.3124 C   0  0  0  0  0  0  0  0  0  0  0  0
   12.7292   10.9960   18.4597 C   0  0  0  0  0  0  0  0  0  0  0  0
    9.3798    6.6793   23.6625 C   0  0  0  0  0  0  0  0  0  0  0  0
   14.7425   10.0739   19.0802 O   0  0  0  0  0  0  0  0  0  0  0  0
    5.1894    9.4673   20.7118 C   0  0  0  0  0  0  0  0  0  0  0  0
    7.3773    8.8224   21.4870 C   0  0  0  0  0  0  0  0  0  0  0  0
    8.4391    6.6439   21.0235 C   0  0  0  0  0  0  0  0  0  0  0  0
    9.6494   11.1353   20.4167 C   0  0  0  0  0  0  0  0  0  0  0  0
    8.1431    7.6829   21.9046 C   0  0  0  0  0  0  0  0  0  0  0  0
    7.7796   10.1314   21.5115 N   0  0  0  0  0  0  0  0  0  0  0  0
    9.2768    5.6183   21.4437 C   0  0  0  0  0  0  0  0  0  0  0  0
    8.6315    7.7322   23.1768 C   0  0  0  0  0  0  0  0  0  0  0  0
   13.0537    9.9821   20.5781 C   0  0  0  0  0  0  0  0  0  0  0  0
   10.3850    4.6575   23.2386 O   0  0  0  0  0  0  0  0  0  0  0  0
    4.2069    6.8450   20.7994 C   0  0  0  0  0  0  0  0  0  0  0  0
    3.0726   10.1043   19.8522 O   0  0  0  0  0  0  0  0  0  0  0  0
    5.5057    7.1196   21.1155 C   0  0  0  0  0  0  0  0  0  0  0  0
    7.0367   11.0229   21.9948 O   0  0  0  0  0  0  0  0  0  0  0  0
  1  8  4  0
  1 12  4  0
  2  9  1  0
  2 11  4  0
  2 25  4  0
  3 12  4  0
  3 14  1  0
  3 23  4  0
  4 13  4  0
  4 21  4  0
  4 24  1  0
  5  8  4  0
  5 23  4  0
  6 18  2  0
  7 15  4  0
  7 16  1  0
  7 27  4  0
  8 18  1  0
 10 18  1  0
 10 20  1  0
 11 15  4  0
 11 26  1  0
 13 22  4  0
 16 19  1  0
 16 20  2  0
 17 19  4  0
 17 21  4  0
 19 22  4  0
 20 28  1  0
 25 27  4  0
M  END
$$$$

 Created by Python create_sdf_string function

 28 30  0  0  0  0  0  0  0  0999 V2000
   11.4592   11.2893   18.7941 C   0  0  0  0  0  0  0  0  0  0  0  0
    3.4202    7.9009   20.3866 C   0  0  0  0  0  0  0  0  0  0  0  0
   13.5280   10.3522   19.3586 C   0  0  0  0  0  0  0  0  0  0  0  0
    9.6923    5.6468   22.7891 C   0  0  0  0  0  0  0  0  0  0  0  0
   11.7756   10.2554   20.8841 N   0  0  0  0  0  0  0  0  0  0  0  0
    8.9876   11.9370   19.8757 O   0  0  0  0  0  0  0  0  0  0  0  0
    6.0167    8.4478   21.1089 C   0  0  0  0  0  0  0  0  0  0  0  0
   11.0002   10.8890   20.0262 C   0  0  0  0  0  0  0  0  0  0  0  0
    2.1721    7.7393   20.0315 O   0  0  0  0  0  0  0  0  0  0  0  0
    9.1107   10.3880   21.3769 N   0  0  0  0  0  0  0  0  0  0  0  0
    3.9102    9.2008   20.3124 C   0  0  0  0  0  0  0  0  0  0  0  0
   12.7292   10.9960   18.4597 C   0  0  0  0  0  0  0  0  0  0  0  0
    9.3798    6.6793   23.6625 C   0  0  0  0  0  0  0  0  0  0  0  0
   14.7425   10.0739   19.0802 O   0  0  0  0  0  0  0  0  0  0  0  0
    5.1894    9.4673   20.7118 C   0  0  0  0  0  0  0  0  0  0  0  0
    7.3773    8.8224   21.4870 C   0  0  0  0  0  0  0  0  0  0  0  0
    8.4391    6.6439   21.0235 C   0  0  0  0  0  0  0  0  0  0  0  0
    9.6494   11.1353   20.4167 C   0  0  0  0  0  0  0  0  0  0  0  0
    8.1431    7.6829   21.9046 C   0  0  0  0  0  0  0  0  0  0  0  0
    7.7796   10.1314   21.5115 N   0  0  0  0  0  0  0  0  0  0  0  0
    9.2768    5.6183   21.4437 C   0  0  0  0  0  0  0  0  0  0  0  0
    8.6315    7.7322   23.1768 C   0  0  0  0  0  0  0  0  0  0  0  0
   13.0537    9.9821   20.5781 C   0  0  0  0  0  0  0  0  0  0  0  0
   10.3850    4.6575   23.2386 O   0  0  0  0  0  0  0  0  0  0  0  0
    4.2069    6.8450   20.7994 C   0  0  0  0  0  0  0  0  0  0  0  0
    3.0726   10.1043   19.8522 O   0  0  0  0  0  0  0  0  0  0  0  0
    5.5057    7.1196   21.1155 C   0  0  0  0  0  0  0  0  0  0  0  0
    7.0367   11.0229   21.9948 O   0  0  0  0  0  0  0  0  0  0  0  0
  1  8  4  0
  1 12  4  0
  2  9  1  0
  2 11  4  0
  2 25  4  0
  3 12  4  0
  3 14  1  0
  3 23  4  0
  4 13  4  0
  4 21  4  0
  4 24  1  0
  5  8  4  0
  5 23  4  0
  6 18  2  0
  7 15  4  0
  7 16  1  0
  7 27  4  0
  8 18  1  0
 10 18  1  0
 10 20  1  0
 11 15  4  0
 11 26  1  0
 13 22  4  0
 16 19  1  0
 16 20  2  0
 17 19  4  0
 17 21  4  0
 19 22  4  0
 20 28  1  0
 25 27  4  0
M  END
$$$$

 Created by Python create_sdf_string function

 28 30  0  0  0  0  0  0  0  0999 V2000
   11.4592   11.2893   18.7941 C   0  0  0  0  0  0  0  0  0  0  0  0
    3.4202    7.9009   20.3866 C   0  0  0  0  0  0  0  0  0  0  0  0
   13.5280   10.3522   19.3586 C   0  0  0  0  0  0  0  0  0  0  0  0
    9.6923    5.6468   22.7891 C   0  0  0  0  0  0  0  0  0  0  0  0
   11.7756   10.2554   20.8841 N   0  0  0  0  0  0  0  0  0  0  0  0
    8.9876   11.9370   19.8757 O   0  0  0  0  0  0  0  0  0  0  0  0
    6.0167    8.4478   21.1089 C   0  0  0  0  0  0  0  0  0  0  0  0
   11.0002   10.8890   20.0262 C   0  0  0  0  0  0  0  0  0  0  0  0
    2.1721    7.7393   20.0315 O   0  0  0  0  0  0  0  0  0  0  0  0
    9.1107   10.3880   21.3769 N   0  0  0  0  0  0  0  0  0  0  0  0
    3.9102    9.2008   20.3124 C   0  0  0  0  0  0  0  0  0  0  0  0
   12.7292   10.9960   18.4597 C   0  0  0  0  0  0  0  0  0  0  0  0
    9.3798    6.6793   23.6625 C   0  0  0  0  0  0  0  0  0  0  0  0
   14.7425   10.0739   19.0802 O   0  0  0  0  0  0  0  0  0  0  0  0
    5.1894    9.4673   20.7118 C   0  0  0  0  0  0  0  0  0  0  0  0
    7.3773    8.8224   21.4870 C   0  0  0  0  0  0  0  0  0  0  0  0
    8.4391    6.6439   21.0235 C   0  0  0  0  0  0  0  0  0  0  0  0
    9.6494   11.1353   20.4167 C   0  0  0  0  0  0  0  0  0  0  0  0
    8.1431    7.6829   21.9046 C   0  0  0  0  0  0  0  0  0  0  0  0
    7.7796   10.1314   21.5115 N   0  0  0  0  0  0  0  0  0  0  0  0
    9.2768    5.6183   21.4437 C   0  0  0  0  0  0  0  0  0  0  0  0
    8.6315    7.7322   23.1768 C   0  0  0  0  0  0  0  0  0  0  0  0
   13.0537    9.9821   20.5781 C   0  0  0  0  0  0  0  0  0  0  0  0
   10.3850    4.6575   23.2386 O   0  0  0  0  0  0  0  0  0  0  0  0
    4.2069    6.8450   20.7994 C   0  0  0  0  0  0  0  0  0  0  0  0
    3.0726   10.1043   19.8522 O   0  0  0  0  0  0  0  0  0  0  0  0
    5.5057    7.1196   21.1155 C   0  0  0  0  0  0  0  0  0  0  0  0
    7.0367   11.0229   21.9948 O   0  0  0  0  0  0  0  0  0  0  0  0
  1  8  4  0
  1 12  4  0
  2  9  1  0
  2 11  4  0
  2 25  4  0
  3 12  4  0
  3 14  1  0
  3 23  4  0
  4 13  4  0
  4 21  4  0
  4 24  1  0
  5  8  4  0
  5 23  4  0
  6 18  2  0
  7 15  4  0
  7 16  1  0
  7 27  4  0
  8 18  1  0
 10 18  1  0
 10 20  1  0
 11 15  4  0
 11 26  1  0
 13 22  4  0
 16 19  1  0
 16 20  2  0
 17 19  4  0
 17 21  4  0
 19 22  4  0
 20 28  1  0
 25 27  4  0
M  END
$$$$

 Created by Python create_sdf_string function

 28 30  0  0  0  0  0  0  0  0999 V2000
   11.4592   11.2893   18.7941 C   0  0  0  0  0  0  0  0  0  0  0  0
    3.4202    7.9009   20.3866 C   0  0  0  0  0  0  0  0  0  0  0  0
   13.5280   10.3522   19.3586 C   0  0  0  0  0  0  0  0  0  0  0  0
    9.6923    5.6468   22.7891 C   0  0  0  0  0  0  0  0  0  0  0  0
   11.7756   10.2554   20.8841 N   0  0  0  0  0  0  0  0  0  0  0  0
    8.9876   11.9370   19.8757 O   0  0  0  0  0  0  0  0  0  0  0  0
    6.0167    8.4478   21.1089 C   0  0  0  0  0  0  0  0  0  0  0  0
   11.0002   10.8890   20.0262 C   0  0  0  0  0  0  0  0  0  0  0  0
    2.1721    7.7393   20.0315 O   0  0  0  0  0  0  0  0  0  0  0  0
    9.1107   10.3880   21.3769 N   0  0  0  0  0  0  0  0  0  0  0  0
    3.9102    9.2008   20.3124 C   0  0  0  0  0  0  0  0  0  0  0  0
   12.7292   10.9960   18.4597 C   0  0  0  0  0  0  0  0  0  0  0  0
    9.3798    6.6793   23.6625 C   0  0  0  0  0  0  0  0  0  0  0  0
   14.7425   10.0739   19.0802 O   0  0  0  0  0  0  0  0  0  0  0  0
    5.1894    9.4673   20.7118 C   0  0  0  0  0  0  0  0  0  0  0  0
    7.3773    8.8224   21.4870 C   0  0  0  0  0  0  0  0  0  0  0  0
    8.4391    6.6439   21.0235 C   0  0  0  0  0  0  0  0  0  0  0  0
    9.6494   11.1353   20.4167 C   0  0  0  0  0  0  0  0  0  0  0  0
    8.1431    7.6829   21.9046 C   0  0  0  0  0  0  0  0  0  0  0  0
    7.7796   10.1314   21.5115 N   0  0  0  0  0  0  0  0  0  0  0  0
    9.2768    5.6183   21.4437 C   0  0  0  0  0  0  0  0  0  0  0  0
    8.6315    7.7322   23.1768 C   0  0  0  0  0  0  0  0  0  0  0  0
   13.0537    9.9821   20.5781 C   0  0  0  0  0  0  0  0  0  0  0  0
   10.3850    4.6575   23.2386 O   0  0  0  0  0  0  0  0  0  0  0  0
    4.2069    6.8450   20.7994 C   0  0  0  0  0  0  0  0  0  0  0  0
    3.0726   10.1043   19.8522 O   0  0  0  0  0  0  0  0  0  0  0  0
    5.5057    7.1196   21.1155 C   0  0  0  0  0  0  0  0  0  0  0  0
    7.0367   11.0229   21.9948 O   0  0  0  0  0  0  0  0  0  0  0  0
  1  8  4  0
  1 12  4  0
  2  9  1  0
  2 11  4  0
  2 25  4  0
  3 12  4  0
  3 14  1  0
  3 23  4  0
  4 13  4  0
  4 21  4  0
  4 24  1  0
  5  8  4  0
  5 23  4  0
  6 18  2  0
  7 15  4  0
  7 16  1  0
  7 27  4  0
  8 18  1  0
 10 18  1  0
 10 20  1  0
 11 15  4  0
 11 26  1  0
 13 22  4  0
 16 19  1  0
 16 20  2  0
 17 19  4  0
 17 21  4  0
 19 22  4  0
 20 28  1  0
 25 27  4  0
M  END
$$$$

 Created by Python create_sdf_string function

 28 30  0  0  0  0  0  0  0  0999 V2000
   11.4592   11.2893   18.7941 C   0  0  0  0  0  0  0  0  0  0  0  0
    3.4202    7.9009   20.3866 C   0  0  0  0  0  0  0  0  0  0  0  0
   13.5280   10.3522   19.3586 C   0  0  0  0  0  0  0  0  0  0  0  0
    9.6923    5.6468   22.7891 C   0  0  0  0  0  0  0  0  0  0  0  0
   11.7756   10.2554   20.8841 N   0  0  0  0  0  0  0  0  0  0  0  0
    8.9876   11.9370   19.8757 O   0  0  0  0  0  0  0  0  0  0  0  0
    6.0167    8.4478   21.1089 C   0  0  0  0  0  0  0  0  0  0  0  0
   11.0002   10.8890   20.0262 C   0  0  0  0  0  0  0  0  0  0  0  0
    2.1721    7.7393   20.0315 O   0  0  0  0  0  0  0  0  0  0  0  0
    9.1107   10.3880   21.3769 N   0  0  0  0  0  0  0  0  0  0  0  0
    3.9102    9.2008   20.3124 C   0  0  0  0  0  0  0  0  0  0  0  0
   12.7292   10.9960   18.4597 C   0  0  0  0  0  0  0  0  0  0  0  0
    9.3798    6.6793   23.6625 C   0  0  0  0  0  0  0  0  0  0  0  0
   14.7425   10.0739   19.0802 O   0  0  0  0  0  0  0  0  0  0  0  0
    5.1894    9.4673   20.7118 C   0  0  0  0  0  0  0  0  0  0  0  0
    7.3773    8.8224   21.4870 C   0  0  0  0  0  0  0  0  0  0  0  0
    8.4391    6.6439   21.0235 C   0  0  0  0  0  0  0  0  0  0  0  0
    9.6494   11.1353   20.4167 C   0  0  0  0  0  0  0  0  0  0  0  0
    8.1431    7.6829   21.9046 C   0  0  0  0  0  0  0  0  0  0  0  0
    7.7796   10.1314   21.5115 N   0  0  0  0  0  0  0  0  0  0  0  0
    9.2768    5.6183   21.4437 C   0  0  0  0  0  0  0  0  0  0  0  0
    8.6315    7.7322   23.1768 C   0  0  0  0  0  0  0  0  0  0  0  0
   13.0537    9.9821   20.5781 C   0  0  0  0  0  0  0  0  0  0  0  0
   10.3850    4.6575   23.2386 O   0  0  0  0  0  0  0  0  0  0  0  0
    4.2069    6.8450   20.7994 C   0  0  0  0  0  0  0  0  0  0  0  0
    3.0726   10.1043   19.8522 O   0  0  0  0  0  0  0  0  0  0  0  0
    5.5057    7.1196   21.1155 C   0  0  0  0  0  0  0  0  0  0  0  0
    7.0367   11.0229   21.9948 O   0  0  0  0  0  0  0  0  0  0  0  0
  1  8  4  0
  1 12  4  0
  2  9  1  0
  2 11  4  0
  2 25  4  0
  3 12  4  0
  3 14  1  0
  3 23  4  0
  4 13  4  0
  4 21  4  0
  4 24  1  0
  5  8  4  0
  5 23  4  0
  6 18  2  0
  7 15  4  0
  7 16  1  0
  7 27  4  0
  8 18  1  0
 10 18  1  0
 10 20  1  0
 11 15  4  0
 11 26  1  0
 13 22  4  0
 16 19  1  0
 16 20  2  0
 17 19  4  0
 17 21  4  0
 19 22  4  0
 20 28  1  0
 25 27  4  0
M  END
$$$$

 Created by Python create_sdf_string function

 28 30  0  0  0  0  0  0  0  0999 V2000
   11.4592   11.2893   18.7941 C   0  0  0  0  0  0  0  0  0  0  0  0
    3.4202    7.9009   20.3866 C   0  0  0  0  0  0  0  0  0  0  0  0
   13.5280   10.3522   19.3586 C   0  0  0  0  0  0  0  0  0  0  0  0
    9.6923    5.6468   22.7891 C   0  0  0  0  0  0  0  0  0  0  0  0
   11.7756   10.2554   20.8841 N   0  0  0  0  0  0  0  0  0  0  0  0
    8.9876   11.9370   19.8757 O   0  0  0  0  0  0  0  0  0  0  0  0
    6.0167    8.4478   21.1089 C   0  0  0  0  0  0  0  0  0  0  0  0
   11.0002   10.8890   20.0262 C   0  0  0  0  0  0  0  0  0  0  0  0
    2.1721    7.7393   20.0315 O   0  0  0  0  0  0  0  0  0  0  0  0
    9.1107   10.3880   21.3769 N   0  0  0  0  0  0  0  0  0  0  0  0
    3.9102    9.2008   20.3124 C   0  0  0  0  0  0  0  0  0  0  0  0
   12.7292   10.9960   18.4597 C   0  0  0  0  0  0  0  0  0  0  0  0
    9.3798    6.6793   23.6625 C   0  0  0  0  0  0  0  0  0  0  0  0
   14.7425   10.0739   19.0802 O   0  0  0  0  0  0  0  0  0  0  0  0
    5.1894    9.4673   20.7118 C   0  0  0  0  0  0  0  0  0  0  0  0
    7.3773    8.8224   21.4870 C   0  0  0  0  0  0  0  0  0  0  0  0
    8.4391    6.6439   21.0235 C   0  0  0  0  0  0  0  0  0  0  0  0
    9.6494   11.1353   20.4167 C   0  0  0  0  0  0  0  0  0  0  0  0
    8.1431    7.6829   21.9046 C   0  0  0  0  0  0  0  0  0  0  0  0
    7.7796   10.1314   21.5115 N   0  0  0  0  0  0  0  0  0  0  0  0
    9.2768    5.6183   21.4437 C   0  0  0  0  0  0  0  0  0  0  0  0
    8.6315    7.7322   23.1768 C   0  0  0  0  0  0  0  0  0  0  0  0
   13.0537    9.9821   20.5781 C   0  0  0  0  0  0  0  0  0  0  0  0
   10.3850    4.6575   23.2386 O   0  0  0  0  0  0  0  0  0  0  0  0
    4.2069    6.8450   20.7994 C   0  0  0  0  0  0  0  0  0  0  0  0
    3.0726   10.1043   19.8522 O   0  0  0  0  0  0  0  0  0  0  0  0
    5.5057    7.1196   21.1155 C   0  0  0  0  0  0  0  0  0  0  0  0
    7.0367   11.0229   21.9948 O   0  0  0  0  0  0  0  0  0  0  0  0
  1  8  4  0
  1 12  4  0
  2  9  1  0
  2 11  4  0
  2 25  4  0
  3 12  4  0
  3 14  1  0
  3 23  4  0
  4 13  4  0
  4 21  4  0
  4 24  1  0
  5  8  4  0
  5 23  4  0
  6 18  2  0
  7 15  4  0
  7 16  1  0
  7 27  4  0
  8 18  1  0
 10 18  1  0
 10 20  1  0
 11 15  4  0
 11 26  1  0
 13 22  4  0
 16 19  1  0
 16 20  2  0
 17 19  4  0
 17 21  4  0
 19 22  4  0
 20 28  1  0
 25 27  4  0
M  END
$$$$

 Created by Python create_sdf_string function

 28 30  0  0  0  0  0  0  0  0999 V2000
   11.4592   11.2893   18.7941 C   0  0  0  0  0  0  0  0  0  0  0  0
    3.4202    7.9009   20.3866 C   0  0  0  0  0  0  0  0  0  0  0  0
   13.5280   10.3522   19.3586 C   0  0  0  0  0  0  0  0  0  0  0  0
    9.6923    5.6468   22.7891 C   0  0  0  0  0  0  0  0  0  0  0  0
   11.7756   10.2554   20.8841 N   0  0  0  0  0  0  0  0  0  0  0  0
    8.9876   11.9370   19.8757 O   0  0  0  0  0  0  0  0  0  0  0  0
    6.0167    8.4478   21.1089 C   0  0  0  0  0  0  0  0  0  0  0  0
   11.0002   10.8890   20.0262 C   0  0  0  0  0  0  0  0  0  0  0  0
    2.1721    7.7393   20.0315 O   0  0  0  0  0  0  0  0  0  0  0  0
    9.1107   10.3880   21.3769 N   0  0  0  0  0  0  0  0  0  0  0  0
    3.9102    9.2008   20.3124 C   0  0  0  0  0  0  0  0  0  0  0  0
   12.7292   10.9960   18.4597 C   0  0  0  0  0  0  0  0  0  0  0  0
    9.3798    6.6793   23.6625 C   0  0  0  0  0  0  0  0  0  0  0  0
   14.7425   10.0739   19.0802 O   0  0  0  0  0  0  0  0  0  0  0  0
    5.1894    9.4673   20.7118 C   0  0  0  0  0  0  0  0  0  0  0  0
    7.3773    8.8224   21.4870 C   0  0  0  0  0  0  0  0  0  0  0  0
    8.4391    6.6439   21.0235 C   0  0  0  0  0  0  0  0  0  0  0  0
    9.6494   11.1353   20.4167 C   0  0  0  0  0  0  0  0  0  0  0  0
    8.1431    7.6829   21.9046 C   0  0  0  0  0  0  0  0  0  0  0  0
    7.7796   10.1314   21.5115 N   0  0  0  0  0  0  0  0  0  0  0  0
    9.2768    5.6183   21.4437 C   0  0  0  0  0  0  0  0  0  0  0  0
    8.6315    7.7322   23.1768 C   0  0  0  0  0  0  0  0  0  0  0  0
   13.0537    9.9821   20.5781 C   0  0  0  0  0  0  0  0  0  0  0  0
   10.3850    4.6575   23.2386 O   0  0  0  0  0  0  0  0  0  0  0  0
    4.2069    6.8450   20.7994 C   0  0  0  0  0  0  0  0  0  0  0  0
    3.0726   10.1043   19.8522 O   0  0  0  0  0  0  0  0  0  0  0  0
    5.5057    7.1196   21.1155 C   0  0  0  0  0  0  0  0  0  0  0  0
    7.0367   11.0229   21.9948 O   0  0  0  0  0  0  0  0  0  0  0  0
  1  8  4  0
  1 12  4  0
  2  9  1  0
  2 11  4  0
  2 25  4  0
  3 12  4  0
  3 14  1  0
  3 23  4  0
  4 13  4  0
  4 21  4  0
  4 24  1  0
  5  8  4  0
  5 23  4  0
  6 18  2  0
  7 15  4  0
  7 16  1  0
  7 27  4  0
  8 18  1  0
 10 18  1  0
 10 20  1  0
 11 15  4  0
 11 26  1  0
 13 22  4  0
 16 19  1  0
 16 20  2  0
 17 19  4  0
 17 21  4  0
 19 22  4  0
 20 28  1  0
 25 27  4  0
M  END
$$$$

 Created by Python create_sdf_string function

 28 30  0  0  0  0  0  0  0  0999 V2000
   11.4592   11.2893   18.7941 C   0  0  0  0  0  0  0  0  0  0  0  0
    3.4202    7.9009   20.3866 C   0  0  0  0  0  0  0  0  0  0  0  0
   13.5280   10.3522   19.3586 C   0  0  0  0  0  0  0  0  0  0  0  0
    9.6923    5.6468   22.7891 C   0  0  0  0  0  0  0  0  0  0  0  0
   11.7756   10.2554   20.8841 N   0  0  0  0  0  0  0  0  0  0  0  0
    8.9876   11.9370   19.8757 O   0  0  0  0  0  0  0  0  0  0  0  0
    6.0167    8.4478   21.1089 C   0  0  0  0  0  0  0  0  0  0  0  0
   11.0002   10.8890   20.0262 C   0  0  0  0  0  0  0  0  0  0  0  0
    2.1721    7.7393   20.0315 O   0  0  0  0  0  0  0  0  0  0  0  0
    9.1107   10.3880   21.3769 N   0  0  0  0  0  0  0  0  0  0  0  0
    3.9102    9.2008   20.3124 C   0  0  0  0  0  0  0  0  0  0  0  0
   12.7292   10.9960   18.4597 C   0  0  0  0  0  0  0  0  0  0  0  0
    9.3798    6.6793   23.6625 C   0  0  0  0  0  0  0  0  0  0  0  0
   14.7425   10.0739   19.0802 O   0  0  0  0  0  0  0  0  0  0  0  0
    5.1894    9.4673   20.7118 C   0  0  0  0  0  0  0  0  0  0  0  0
    7.3773    8.8224   21.4870 C   0  0  0  0  0  0  0  0  0  0  0  0
    8.4391    6.6439   21.0235 C   0  0  0  0  0  0  0  0  0  0  0  0
    9.6494   11.1353   20.4167 C   0  0  0  0  0  0  0  0  0  0  0  0
    8.1431    7.6829   21.9046 C   0  0  0  0  0  0  0  0  0  0  0  0
    7.7796   10.1314   21.5115 N   0  0  0  0  0  0  0  0  0  0  0  0
    9.2768    5.6183   21.4437 C   0  0  0  0  0  0  0  0  0  0  0  0
    8.6315    7.7322   23.1768 C   0  0  0  0  0  0  0  0  0  0  0  0
   13.0537    9.9821   20.5781 C   0  0  0  0  0  0  0  0  0  0  0  0
   10.3850    4.6575   23.2386 O   0  0  0  0  0  0  0  0  0  0  0  0
    4.2069    6.8450   20.7994 C   0  0  0  0  0  0  0  0  0  0  0  0
    3.0726   10.1043   19.8522 O   0  0  0  0  0  0  0  0  0  0  0  0
    5.5057    7.1196   21.1155 C   0  0  0  0  0  0  0  0  0  0  0  0
    7.0367   11.0229   21.9948 O   0  0  0  0  0  0  0  0  0  0  0  0
  1  8  4  0
  1 12  4  0
  2  9  1  0
  2 11  4  0
  2 25  4  0
  3 12  4  0
  3 14  1  0
  3 23  4  0
  4 13  4  0
  4 21  4  0
  4 24  1  0
  5  8  4  0
  5 23  4  0
  6 18  2  0
  7 15  4  0
  7 16  1  0
  7 27  4  0
  8 18  1  0
 10 18  1  0
 10 20  1  0
 11 15  4  0
 11 26  1  0
 13 22  4  0
 16 19  1  0
 16 20  2  0
 17 19  4  0
 17 21  4  0
 19 22  4  0
 20 28  1  0
 25 27  4  0
M  END
$$$$

 Created by Python create_sdf_string function

 28 30  0  0  0  0  0  0  0  0999 V2000
   11.4592   11.2893   18.7941 C   0  0  0  0  0  0  0  0  0  0  0  0
    3.4202    7.9009   20.3866 C   0  0  0  0  0  0  0  0  0  0  0  0
   13.5280   10.3522   19.3586 C   0  0  0  0  0  0  0  0  0  0  0  0
    9.6923    5.6468   22.7891 C   0  0  0  0  0  0  0  0  0  0  0  0
   11.7756   10.2554   20.8841 N   0  0  0  0  0  0  0  0  0  0  0  0
    8.9876   11.9370   19.8757 O   0  0  0  0  0  0  0  0  0  0  0  0
    6.0167    8.4478   21.1089 C   0  0  0  0  0  0  0  0  0  0  0  0
   11.0002   10.8890   20.0262 C   0  0  0  0  0  0  0  0  0  0  0  0
    2.1721    7.7393   20.0315 O   0  0  0  0  0  0  0  0  0  0  0  0
    9.1107   10.3880   21.3769 N   0  0  0  0  0  0  0  0  0  0  0  0
    3.9102    9.2008   20.3124 C   0  0  0  0  0  0  0  0  0  0  0  0
   12.7292   10.9960   18.4597 C   0  0  0  0  0  0  0  0  0  0  0  0
    9.3798    6.6793   23.6625 C   0  0  0  0  0  0  0  0  0  0  0  0
   14.7425   10.0739   19.0802 O   0  0  0  0  0  0  0  0  0  0  0  0
    5.1894    9.4673   20.7118 C   0  0  0  0  0  0  0  0  0  0  0  0
    7.3773    8.8224   21.4870 C   0  0  0  0  0  0  0  0  0  0  0  0
    8.4391    6.6439   21.0235 C   0  0  0  0  0  0  0  0  0  0  0  0
    9.6494   11.1353   20.4167 C   0  0  0  0  0  0  0  0  0  0  0  0
    8.1431    7.6829   21.9046 C   0  0  0  0  0  0  0  0  0  0  0  0
    7.7796   10.1314   21.5115 N   0  0  0  0  0  0  0  0  0  0  0  0
    9.2768    5.6183   21.4437 C   0  0  0  0  0  0  0  0  0  0  0  0
    8.6315    7.7322   23.1768 C   0  0  0  0  0  0  0  0  0  0  0  0
   13.0537    9.9821   20.5781 C   0  0  0  0  0  0  0  0  0  0  0  0
   10.3850    4.6575   23.2386 O   0  0  0  0  0  0  0  0  0  0  0  0
    4.2069    6.8450   20.7994 C   0  0  0  0  0  0  0  0  0  0  0  0
    3.0726   10.1043   19.8522 O   0  0  0  0  0  0  0  0  0  0  0  0
    5.5057    7.1196   21.1155 C   0  0  0  0  0  0  0  0  0  0  0  0
    7.0367   11.0229   21.9948 O   0  0  0  0  0  0  0  0  0  0  0  0
  1  8  4  0
  1 12  4  0
  2  9  1  0
  2 11  4  0
  2 25  4  0
  3 12  4  0
  3 14  1  0
  3 23  4  0
  4 13  4  0
  4 21  4  0
  4 24  1  0
  5  8  4  0
  5 23  4  0
  6 18  2  0
  7 15  4  0
  7 16  1  0
  7 27  4  0
  8 18  1  0
 10 18  1  0
 10 20  1  0
 11 15  4  0
 11 26  1  0
 13 22  4  0
 16 19  1  0
 16 20  2  0
 17 19  4  0
 17 21  4  0
 19 22  4  0
 20 28  1  0
 25 27  4  0
M  END
$$$$

 Created by Python create_sdf_string function

 28 30  0  0  0  0  0  0  0  0999 V2000
   11.4592   11.2893   18.7941 C   0  0  0  0  0  0  0  0  0  0  0  0
    3.4202    7.9009   20.3866 C   0  0  0  0  0  0  0  0  0  0  0  0
   13.5280   10.3522   19.3586 C   0  0  0  0  0  0  0  0  0  0  0  0
    9.6923    5.6468   22.7891 C   0  0  0  0  0  0  0  0  0  0  0  0
   11.7756   10.2554   20.8841 N   0  0  0  0  0  0  0  0  0  0  0  0
    8.9876   11.9370   19.8757 O   0  0  0  0  0  0  0  0  0  0  0  0
    6.0167    8.4478   21.1089 C   0  0  0  0  0  0  0  0  0  0  0  0
   11.0002   10.8890   20.0262 C   0  0  0  0  0  0  0  0  0  0  0  0
    2.1721    7.7393   20.0315 O   0  0  0  0  0  0  0  0  0  0  0  0
    9.1107   10.3880   21.3769 N   0  0  0  0  0  0  0  0  0  0  0  0
    3.9102    9.2008   20.3124 C   0  0  0  0  0  0  0  0  0  0  0  0
   12.7292   10.9960   18.4597 C   0  0  0  0  0  0  0  0  0  0  0  0
    9.3798    6.6793   23.6625 C   0  0  0  0  0  0  0  0  0  0  0  0
   14.7425   10.0739   19.0802 O   0  0  0  0  0  0  0  0  0  0  0  0
    5.1894    9.4673   20.7118 C   0  0  0  0  0  0  0  0  0  0  0  0
    7.3773    8.8224   21.4870 C   0  0  0  0  0  0  0  0  0  0  0  0
    8.4391    6.6439   21.0235 C   0  0  0  0  0  0  0  0  0  0  0  0
    9.6494   11.1353   20.4167 C   0  0  0  0  0  0  0  0  0  0  0  0
    8.1431    7.6829   21.9046 C   0  0  0  0  0  0  0  0  0  0  0  0
    7.7796   10.1314   21.5115 N   0  0  0  0  0  0  0  0  0  0  0  0
    9.2768    5.6183   21.4437 C   0  0  0  0  0  0  0  0  0  0  0  0
    8.6315    7.7322   23.1768 C   0  0  0  0  0  0  0  0  0  0  0  0
   13.0537    9.9821   20.5781 C   0  0  0  0  0  0  0  0  0  0  0  0
   10.3850    4.6575   23.2386 O   0  0  0  0  0  0  0  0  0  0  0  0
    4.2069    6.8450   20.7994 C   0  0  0  0  0  0  0  0  0  0  0  0
    3.0726   10.1043   19.8522 O   0  0  0  0  0  0  0  0  0  0  0  0
    5.5057    7.1196   21.1155 C   0  0  0  0  0  0  0  0  0  0  0  0
    7.0367   11.0229   21.9948 O   0  0  0  0  0  0  0  0  0  0  0  0
  1  8  4  0
  1 12  4  0
  2  9  1  0
  2 11  4  0
  2 25  4  0
  3 12  4  0
  3 14  1  0
  3 23  4  0
  4 13  4  0
  4 21  4  0
  4 24  1  0
  5  8  4  0
  5 23  4  0
  6 18  2  0
  7 15  4  0
  7 16  1  0
  7 27  4  0
  8 18  1  0
 10 18  1  0
 10 20  1  0
 11 15  4  0
 11 26  1  0
 13 22  4  0
 16 19  1  0
 16 20  2  0
 17 19  4  0
 17 21  4  0
 19 22  4  0
 20 28  1  0
 25 27  4  0
M  END
$$$$

 Created by Python create_sdf_string function

 28 30  0  0  0  0  0  0  0  0999 V2000
   11.4592   11.2893   18.7941 C   0  0  0  0  0  0  0  0  0  0  0  0
    3.4202    7.9009   20.3866 C   0  0  0  0  0  0  0  0  0  0  0  0
   13.5280   10.3522   19.3586 C   0  0  0  0  0  0  0  0  0  0  0  0
    9.6923    5.6468   22.7891 C   0  0  0  0  0  0  0  0  0  0  0  0
   11.7756   10.2554   20.8841 N   0  0  0  0  0  0  0  0  0  0  0  0
    8.9876   11.9370   19.8757 O   0  0  0  0  0  0  0  0  0  0  0  0
    6.0167    8.4478   21.1089 C   0  0  0  0  0  0  0  0  0  0  0  0
   11.0002   10.8890   20.0262 C   0  0  0  0  0  0  0  0  0  0  0  0
    2.1721    7.7393   20.0315 O   0  0  0  0  0  0  0  0  0  0  0  0
    9.1107   10.3880   21.3769 N   0  0  0  0  0  0  0  0  0  0  0  0
    3.9102    9.2008   20.3124 C   0  0  0  0  0  0  0  0  0  0  0  0
   12.7292   10.9960   18.4597 C   0  0  0  0  0  0  0  0  0  0  0  0
    9.3798    6.6793   23.6625 C   0  0  0  0  0  0  0  0  0  0  0  0
   14.7425   10.0739   19.0802 O   0  0  0  0  0  0  0  0  0  0  0  0
    5.1894    9.4673   20.7118 C   0  0  0  0  0  0  0  0  0  0  0  0
    7.3773    8.8224   21.4870 C   0  0  0  0  0  0  0  0  0  0  0  0
    8.4391    6.6439   21.0235 C   0  0  0  0  0  0  0  0  0  0  0  0
    9.6494   11.1353   20.4167 C   0  0  0  0  0  0  0  0  0  0  0  0
    8.1431    7.6829   21.9046 C   0  0  0  0  0  0  0  0  0  0  0  0
    7.7796   10.1314   21.5115 N   0  0  0  0  0  0  0  0  0  0  0  0
    9.2768    5.6183   21.4437 C   0  0  0  0  0  0  0  0  0  0  0  0
    8.6315    7.7322   23.1768 C   0  0  0  0  0  0  0  0  0  0  0  0
   13.0537    9.9821   20.5781 C   0  0  0  0  0  0  0  0  0  0  0  0
   10.3850    4.6575   23.2386 O   0  0  0  0  0  0  0  0  0  0  0  0
    4.2069    6.8450   20.7994 C   0  0  0  0  0  0  0  0  0  0  0  0
    3.0726   10.1043   19.8522 O   0  0  0  0  0  0  0  0  0  0  0  0
    5.5057    7.1196   21.1155 C   0  0  0  0  0  0  0  0  0  0  0  0
    7.0367   11.0229   21.9948 O   0  0  0  0  0  0  0  0  0  0  0  0
  1  8  4  0
  1 12  4  0
  2  9  1  0
  2 11  4  0
  2 25  4  0
  3 12  4  0
  3 14  1  0
  3 23  4  0
  4 13  4  0
  4 21  4  0
  4 24  1  0
  5  8  4  0
  5 23  4  0
  6 18  2  0
  7 15  4  0
  7 16  1  0
  7 27  4  0
  8 18  1  0
 10 18  1  0
 10 20  1  0
 11 15  4  0
 11 26  1  0
 13 22  4  0
 16 19  1  0
 16 20  2  0
 17 19  4  0
 17 21  4  0
 19 22  4  0
 20 28  1  0
 25 27  4  0
M  END
$$$$

 Created by Python create_sdf_string function

 28 30  0  0  0  0  0  0  0  0999 V2000
   11.4592   11.2893   18.7941 C   0  0  0  0  0  0  0  0  0  0  0  0
    3.4202    7.9009   20.3866 C   0  0  0  0  0  0  0  0  0  0  0  0
   13.5280   10.3522   19.3586 C   0  0  0  0  0  0  0  0  0  0  0  0
    9.6923    5.6468   22.7891 C   0  0  0  0  0  0  0  0  0  0  0  0
   11.7756   10.2554   20.8841 N   0  0  0  0  0  0  0  0  0  0  0  0
    8.9876   11.9370   19.8757 O   0  0  0  0  0  0  0  0  0  0  0  0
    6.0167    8.4478   21.1089 C   0  0  0  0  0  0  0  0  0  0  0  0
   11.0002   10.8890   20.0262 C   0  0  0  0  0  0  0  0  0  0  0  0
    2.1721    7.7393   20.0315 O   0  0  0  0  0  0  0  0  0  0  0  0
    9.1107   10.3880   21.3769 N   0  0  0  0  0  0  0  0  0  0  0  0
    3.9102    9.2008   20.3124 C   0  0  0  0  0  0  0  0  0  0  0  0
   12.7292   10.9960   18.4597 C   0  0  0  0  0  0  0  0  0  0  0  0
    9.3798    6.6793   23.6625 C   0  0  0  0  0  0  0  0  0  0  0  0
   14.7425   10.0739   19.0802 O   0  0  0  0  0  0  0  0  0  0  0  0
    5.1894    9.4673   20.7118 C   0  0  0  0  0  0  0  0  0  0  0  0
    7.3773    8.8224   21.4870 C   0  0  0  0  0  0  0  0  0  0  0  0
    8.4391    6.6439   21.0235 C   0  0  0  0  0  0  0  0  0  0  0  0
    9.6494   11.1353   20.4167 C   0  0  0  0  0  0  0  0  0  0  0  0
    8.1431    7.6829   21.9046 C   0  0  0  0  0  0  0  0  0  0  0  0
    7.7796   10.1314   21.5115 N   0  0  0  0  0  0  0  0  0  0  0  0
    9.2768    5.6183   21.4437 C   0  0  0  0  0  0  0  0  0  0  0  0
    8.6315    7.7322   23.1768 C   0  0  0  0  0  0  0  0  0  0  0  0
   13.0537    9.9821   20.5781 C   0  0  0  0  0  0  0  0  0  0  0  0
   10.3850    4.6575   23.2386 O   0  0  0  0  0  0  0  0  0  0  0  0
    4.2069    6.8450   20.7994 C   0  0  0  0  0  0  0  0  0  0  0  0
    3.0726   10.1043   19.8522 O   0  0  0  0  0  0  0  0  0  0  0  0
    5.5057    7.1196   21.1155 C   0  0  0  0  0  0  0  0  0  0  0  0
    7.0367   11.0229   21.9948 O   0  0  0  0  0  0  0  0  0  0  0  0
  1  8  4  0
  1 12  4  0
  2  9  1  0
  2 11  4  0
  2 25  4  0
  3 12  4  0
  3 14  1  0
  3 23  4  0
  4 13  4  0
  4 21  4  0
  4 24  1  0
  5  8  4  0
  5 23  4  0
  6 18  2  0
  7 15  4  0
  7 16  1  0
  7 27  4  0
  8 18  1  0
 10 18  1  0
 10 20  1  0
 11 15  4  0
 11 26  1  0
 13 22  4  0
 16 19  1  0
 16 20  2  0
 17 19  4  0
 17 21  4  0
 19 22  4  0
 20 28  1  0
 25 27  4  0
M  END
$$$$

 Created by Python create_sdf_string function

 28 30  0  0  0  0  0  0  0  0999 V2000
   11.4592   11.2893   18.7941 C   0  0  0  0  0  0  0  0  0  0  0  0
    3.4202    7.9009   20.3866 C   0  0  0  0  0  0  0  0  0  0  0  0
   13.5280   10.3522   19.3586 C   0  0  0  0  0  0  0  0  0  0  0  0
    9.6923    5.6468   22.7891 C   0  0  0  0  0  0  0  0  0  0  0  0
   11.7756   10.2554   20.8841 N   0  0  0  0  0  0  0  0  0  0  0  0
    8.9876   11.9370   19.8757 O   0  0  0  0  0  0  0  0  0  0  0  0
    6.0167    8.4478   21.1089 C   0  0  0  0  0  0  0  0  0  0  0  0
   11.0002   10.8890   20.0262 C   0  0  0  0  0  0  0  0  0  0  0  0
    2.1721    7.7393   20.0315 O   0  0  0  0  0  0  0  0  0  0  0  0
    9.1107   10.3880   21.3769 N   0  0  0  0  0  0  0  0  0  0  0  0
    3.9102    9.2008   20.3124 C   0  0  0  0  0  0  0  0  0  0  0  0
   12.7292   10.9960   18.4597 C   0  0  0  0  0  0  0  0  0  0  0  0
    9.3798    6.6793   23.6625 C   0  0  0  0  0  0  0  0  0  0  0  0
   14.7425   10.0739   19.0802 O   0  0  0  0  0  0  0  0  0  0  0  0
    5.1894    9.4673   20.7118 C   0  0  0  0  0  0  0  0  0  0  0  0
    7.3773    8.8224   21.4870 C   0  0  0  0  0  0  0  0  0  0  0  0
    8.4391    6.6439   21.0235 C   0  0  0  0  0  0  0  0  0  0  0  0
    9.6494   11.1353   20.4167 C   0  0  0  0  0  0  0  0  0  0  0  0
    8.1431    7.6829   21.9046 C   0  0  0  0  0  0  0  0  0  0  0  0
    7.7796   10.1314   21.5115 N   0  0  0  0  0  0  0  0  0  0  0  0
    9.2768    5.6183   21.4437 C   0  0  0  0  0  0  0  0  0  0  0  0
    8.6315    7.7322   23.1768 C   0  0  0  0  0  0  0  0  0  0  0  0
   13.0537    9.9821   20.5781 C   0  0  0  0  0  0  0  0  0  0  0  0
   10.3850    4.6575   23.2386 O   0  0  0  0  0  0  0  0  0  0  0  0
    4.2069    6.8450   20.7994 C   0  0  0  0  0  0  0  0  0  0  0  0
    3.0726   10.1043   19.8522 O   0  0  0  0  0  0  0  0  0  0  0  0
    5.5057    7.1196   21.1155 C   0  0  0  0  0  0  0  0  0  0  0  0
    7.0367   11.0229   21.9948 O   0  0  0  0  0  0  0  0  0  0  0  0
  1  8  4  0
  1 12  4  0
  2  9  1  0
  2 11  4  0
  2 25  4  0
  3 12  4  0
  3 14  1  0
  3 23  4  0
  4 13  4  0
  4 21  4  0
  4 24  1  0
  5  8  4  0
  5 23  4  0
  6 18  2  0
  7 15  4  0
  7 16  1  0
  7 27  4  0
  8 18  1  0
 10 18  1  0
 10 20  1  0
 11 15  4  0
 11 26  1  0
 13 22  4  0
 16 19  1  0
 16 20  2  0
 17 19  4  0
 17 21  4  0
 19 22  4  0
 20 28  1  0
 25 27  4  0
M  END
$$$$

 Created by Python create_sdf_string function

 28 30  0  0  0  0  0  0  0  0999 V2000
   11.4592   11.2893   18.7941 C   0  0  0  0  0  0  0  0  0  0  0  0
    3.4202    7.9009   20.3866 C   0  0  0  0  0  0  0  0  0  0  0  0
   13.5280   10.3522   19.3586 C   0  0  0  0  0  0  0  0  0  0  0  0
    9.6923    5.6468   22.7891 C   0  0  0  0  0  0  0  0  0  0  0  0
   11.7756   10.2554   20.8841 N   0  0  0  0  0  0  0  0  0  0  0  0
    8.9876   11.9370   19.8757 O   0  0  0  0  0  0  0  0  0  0  0  0
    6.0167    8.4478   21.1089 C   0  0  0  0  0  0  0  0  0  0  0  0
   11.0002   10.8890   20.0262 C   0  0  0  0  0  0  0  0  0  0  0  0
    2.1721    7.7393   20.0315 O   0  0  0  0  0  0  0  0  0  0  0  0
    9.1107   10.3880   21.3769 N   0  0  0  0  0  0  0  0  0  0  0  0
    3.9102    9.2008   20.3124 C   0  0  0  0  0  0  0  0  0  0  0  0
   12.7292   10.9960   18.4597 C   0  0  0  0  0  0  0  0  0  0  0  0
    9.3798    6.6793   23.6625 C   0  0  0  0  0  0  0  0  0  0  0  0
   14.7425   10.0739   19.0802 O   0  0  0  0  0  0  0  0  0  0  0  0
    5.1894    9.4673   20.7118 C   0  0  0  0  0  0  0  0  0  0  0  0
    7.3773    8.8224   21.4870 C   0  0  0  0  0  0  0  0  0  0  0  0
    8.4391    6.6439   21.0235 C   0  0  0  0  0  0  0  0  0  0  0  0
    9.6494   11.1353   20.4167 C   0  0  0  0  0  0  0  0  0  0  0  0
    8.1431    7.6829   21.9046 C   0  0  0  0  0  0  0  0  0  0  0  0
    7.7796   10.1314   21.5115 N   0  0  0  0  0  0  0  0  0  0  0  0
    9.2768    5.6183   21.4437 C   0  0  0  0  0  0  0  0  0  0  0  0
    8.6315    7.7322   23.1768 C   0  0  0  0  0  0  0  0  0  0  0  0
   13.0537    9.9821   20.5781 C   0  0  0  0  0  0  0  0  0  0  0  0
   10.3850    4.6575   23.2386 O   0  0  0  0  0  0  0  0  0  0  0  0
    4.2069    6.8450   20.7994 C   0  0  0  0  0  0  0  0  0  0  0  0
    3.0726   10.1043   19.8522 O   0  0  0  0  0  0  0  0  0  0  0  0
    5.5057    7.1196   21.1155 C   0  0  0  0  0  0  0  0  0  0  0  0
    7.0367   11.0229   21.9948 O   0  0  0  0  0  0  0  0  0  0  0  0
  1  8  4  0
  1 12  4  0
  2  9  1  0
  2 11  4  0
  2 25  4  0
  3 12  4  0
  3 14  1  0
  3 23  4  0
  4 13  4  0
  4 21  4  0
  4 24  1  0
  5  8  4  0
  5 23  4  0
  6 18  2  0
  7 15  4  0
  7 16  1  0
  7 27  4  0
  8 18  1  0
 10 18  1  0
 10 20  1  0
 11 15  4  0
 11 26  1  0
 13 22  4  0
 16 19  1  0
 16 20  2  0
 17 19  4  0
 17 21  4  0
 19 22  4  0
 20 28  1  0
 25 27  4  0
M  END
$$$$

 Created by Python create_sdf_string function

 28 30  0  0  0  0  0  0  0  0999 V2000
   11.4592   11.2893   18.7941 C   0  0  0  0  0  0  0  0  0  0  0  0
    3.4202    7.9009   20.3866 C   0  0  0  0  0  0  0  0  0  0  0  0
   13.5280   10.3522   19.3586 C   0  0  0  0  0  0  0  0  0  0  0  0
    9.6923    5.6468   22.7891 C   0  0  0  0  0  0  0  0  0  0  0  0
   11.7756   10.2554   20.8841 N   0  0  0  0  0  0  0  0  0  0  0  0
    8.9876   11.9370   19.8757 O   0  0  0  0  0  0  0  0  0  0  0  0
    6.0167    8.4478   21.1089 C   0  0  0  0  0  0  0  0  0  0  0  0
   11.0002   10.8890   20.0262 C   0  0  0  0  0  0  0  0  0  0  0  0
    2.1721    7.7393   20.0315 O   0  0  0  0  0  0  0  0  0  0  0  0
    9.1107   10.3880   21.3769 N   0  0  0  0  0  0  0  0  0  0  0  0
    3.9102    9.2008   20.3124 C   0  0  0  0  0  0  0  0  0  0  0  0
   12.7292   10.9960   18.4597 C   0  0  0  0  0  0  0  0  0  0  0  0
    9.3798    6.6793   23.6625 C   0  0  0  0  0  0  0  0  0  0  0  0
   14.7425   10.0739   19.0802 O   0  0  0  0  0  0  0  0  0  0  0  0
    5.1894    9.4673   20.7118 C   0  0  0  0  0  0  0  0  0  0  0  0
    7.3773    8.8224   21.4870 C   0  0  0  0  0  0  0  0  0  0  0  0
    8.4391    6.6439   21.0235 C   0  0  0  0  0  0  0  0  0  0  0  0
    9.6494   11.1353   20.4167 C   0  0  0  0  0  0  0  0  0  0  0  0
    8.1431    7.6829   21.9046 C   0  0  0  0  0  0  0  0  0  0  0  0
    7.7796   10.1314   21.5115 N   0  0  0  0  0  0  0  0  0  0  0  0
    9.2768    5.6183   21.4437 C   0  0  0  0  0  0  0  0  0  0  0  0
    8.6315    7.7322   23.1768 C   0  0  0  0  0  0  0  0  0  0  0  0
   13.0537    9.9821   20.5781 C   0  0  0  0  0  0  0  0  0  0  0  0
   10.3850    4.6575   23.2386 O   0  0  0  0  0  0  0  0  0  0  0  0
    4.2069    6.8450   20.7994 C   0  0  0  0  0  0  0  0  0  0  0  0
    3.0726   10.1043   19.8522 O   0  0  0  0  0  0  0  0  0  0  0  0
    5.5057    7.1196   21.1155 C   0  0  0  0  0  0  0  0  0  0  0  0
    7.0367   11.0229   21.9948 O   0  0  0  0  0  0  0  0  0  0  0  0
  1  8  4  0
  1 12  4  0
  2  9  1  0
  2 11  4  0
  2 25  4  0
  3 12  4  0
  3 14  1  0
  3 23  4  0
  4 13  4  0
  4 21  4  0
  4 24  1  0
  5  8  4  0
  5 23  4  0
  6 18  2  0
  7 15  4  0
  7 16  1  0
  7 27  4  0
  8 18  1  0
 10 18  1  0
 10 20  1  0
 11 15  4  0
 11 26  1  0
 13 22  4  0
 16 19  1  0
 16 20  2  0
 17 19  4  0
 17 21  4  0
 19 22  4  0
 20 28  1  0
 25 27  4  0
M  END
$$$$

 Created by Python create_sdf_string function

 28 30  0  0  0  0  0  0  0  0999 V2000
   11.4592   11.2893   18.7941 C   0  0  0  0  0  0  0  0  0  0  0  0
    3.4202    7.9009   20.3866 C   0  0  0  0  0  0  0  0  0  0  0  0
   13.5280   10.3522   19.3586 C   0  0  0  0  0  0  0  0  0  0  0  0
    9.6923    5.6468   22.7891 C   0  0  0  0  0  0  0  0  0  0  0  0
   11.7756   10.2554   20.8841 N   0  0  0  0  0  0  0  0  0  0  0  0
    8.9876   11.9370   19.8757 O   0  0  0  0  0  0  0  0  0  0  0  0
    6.0167    8.4478   21.1089 C   0  0  0  0  0  0  0  0  0  0  0  0
   11.0002   10.8890   20.0262 C   0  0  0  0  0  0  0  0  0  0  0  0
    2.1721    7.7393   20.0315 O   0  0  0  0  0  0  0  0  0  0  0  0
    9.1107   10.3880   21.3769 N   0  0  0  0  0  0  0  0  0  0  0  0
    3.9102    9.2008   20.3124 C   0  0  0  0  0  0  0  0  0  0  0  0
   12.7292   10.9960   18.4597 C   0  0  0  0  0  0  0  0  0  0  0  0
    9.3798    6.6793   23.6625 C   0  0  0  0  0  0  0  0  0  0  0  0
   14.7425   10.0739   19.0802 O   0  0  0  0  0  0  0  0  0  0  0  0
    5.1894    9.4673   20.7118 C   0  0  0  0  0  0  0  0  0  0  0  0
    7.3773    8.8224   21.4870 C   0  0  0  0  0  0  0  0  0  0  0  0
    8.4391    6.6439   21.0235 C   0  0  0  0  0  0  0  0  0  0  0  0
    9.6494   11.1353   20.4167 C   0  0  0  0  0  0  0  0  0  0  0  0
    8.1431    7.6829   21.9046 C   0  0  0  0  0  0  0  0  0  0  0  0
    7.7796   10.1314   21.5115 N   0  0  0  0  0  0  0  0  0  0  0  0
    9.2768    5.6183   21.4437 C   0  0  0  0  0  0  0  0  0  0  0  0
    8.6315    7.7322   23.1768 C   0  0  0  0  0  0  0  0  0  0  0  0
   13.0537    9.9821   20.5781 C   0  0  0  0  0  0  0  0  0  0  0  0
   10.3850    4.6575   23.2386 O   0  0  0  0  0  0  0  0  0  0  0  0
    4.2069    6.8450   20.7994 C   0  0  0  0  0  0  0  0  0  0  0  0
    3.0726   10.1043   19.8522 O   0  0  0  0  0  0  0  0  0  0  0  0
    5.5057    7.1196   21.1155 C   0  0  0  0  0  0  0  0  0  0  0  0
    7.0367   11.0229   21.9948 O   0  0  0  0  0  0  0  0  0  0  0  0
  1  8  4  0
  1 12  4  0
  2  9  1  0
  2 11  4  0
  2 25  4  0
  3 12  4  0
  3 14  1  0
  3 23  4  0
  4 13  4  0
  4 21  4  0
  4 24  1  0
  5  8  4  0
  5 23  4  0
  6 18  2  0
  7 15  4  0
  7 16  1  0
  7 27  4  0
  8 18  1  0
 10 18  1  0
 10 20  1  0
 11 15  4  0
 11 26  1  0
 13 22  4  0
 16 19  1  0
 16 20  2  0
 17 19  4  0
 17 21  4  0
 19 22  4  0
 20 28  1  0
 25 27  4  0
M  END
$$$$

 Created by Python create_sdf_string function

 28 30  0  0  0  0  0  0  0  0999 V2000
   11.4592   11.2893   18.7941 C   0  0  0  0  0  0  0  0  0  0  0  0
    3.4202    7.9009   20.3866 C   0  0  0  0  0  0  0  0  0  0  0  0
   13.5280   10.3522   19.3586 C   0  0  0  0  0  0  0  0  0  0  0  0
    9.6923    5.6468   22.7891 C   0  0  0  0  0  0  0  0  0  0  0  0
   11.7756   10.2554   20.8841 N   0  0  0  0  0  0  0  0  0  0  0  0
    8.9876   11.9370   19.8757 O   0  0  0  0  0  0  0  0  0  0  0  0
    6.0167    8.4478   21.1089 C   0  0  0  0  0  0  0  0  0  0  0  0
   11.0002   10.8890   20.0262 C   0  0  0  0  0  0  0  0  0  0  0  0
    2.1721    7.7393   20.0315 O   0  0  0  0  0  0  0  0  0  0  0  0
    9.1107   10.3880   21.3769 N   0  0  0  0  0  0  0  0  0  0  0  0
    3.9102    9.2008   20.3124 C   0  0  0  0  0  0  0  0  0  0  0  0
   12.7292   10.9960   18.4597 C   0  0  0  0  0  0  0  0  0  0  0  0
    9.3798    6.6793   23.6625 C   0  0  0  0  0  0  0  0  0  0  0  0
   14.7425   10.0739   19.0802 O   0  0  0  0  0  0  0  0  0  0  0  0
    5.1894    9.4673   20.7118 C   0  0  0  0  0  0  0  0  0  0  0  0
    7.3773    8.8224   21.4870 C   0  0  0  0  0  0  0  0  0  0  0  0
    8.4391    6.6439   21.0235 C   0  0  0  0  0  0  0  0  0  0  0  0
    9.6494   11.1353   20.4167 C   0  0  0  0  0  0  0  0  0  0  0  0
    8.1431    7.6829   21.9046 C   0  0  0  0  0  0  0  0  0  0  0  0
    7.7796   10.1314   21.5115 N   0  0  0  0  0  0  0  0  0  0  0  0
    9.2768    5.6183   21.4437 C   0  0  0  0  0  0  0  0  0  0  0  0
    8.6315    7.7322   23.1768 C   0  0  0  0  0  0  0  0  0  0  0  0
   13.0537    9.9821   20.5781 C   0  0  0  0  0  0  0  0  0  0  0  0
   10.3850    4.6575   23.2386 O   0  0  0  0  0  0  0  0  0  0  0  0
    4.2069    6.8450   20.7994 C   0  0  0  0  0  0  0  0  0  0  0  0
    3.0726   10.1043   19.8522 O   0  0  0  0  0  0  0  0  0  0  0  0
    5.5057    7.1196   21.1155 C   0  0  0  0  0  0  0  0  0  0  0  0
    7.0367   11.0229   21.9948 O   0  0  0  0  0  0  0  0  0  0  0  0
  1  8  4  0
  1 12  4  0
  2  9  1  0
  2 11  4  0
  2 25  4  0
  3 12  4  0
  3 14  1  0
  3 23  4  0
  4 13  4  0
  4 21  4  0
  4 24  1  0
  5  8  4  0
  5 23  4  0
  6 18  2  0
  7 15  4  0
  7 16  1  0
  7 27  4  0
  8 18  1  0
 10 18  1  0
 10 20  1  0
 11 15  4  0
 11 26  1  0
 13 22  4  0
 16 19  1  0
 16 20  2  0
 17 19  4  0
 17 21  4  0
 19 22  4  0
 20 28  1  0
 25 27  4  0
M  END
$$$$

 Created by Python create_sdf_string function

 28 30  0  0  0  0  0  0  0  0999 V2000
   11.4592   11.2893   18.7941 C   0  0  0  0  0  0  0  0  0  0  0  0
    3.4202    7.9009   20.3866 C   0  0  0  0  0  0  0  0  0  0  0  0
   13.5280   10.3522   19.3586 C   0  0  0  0  0  0  0  0  0  0  0  0
    9.6923    5.6468   22.7891 C   0  0  0  0  0  0  0  0  0  0  0  0
   11.7756   10.2554   20.8841 N   0  0  0  0  0  0  0  0  0  0  0  0
    8.9876   11.9370   19.8757 O   0  0  0  0  0  0  0  0  0  0  0  0
    6.0167    8.4478   21.1089 C   0  0  0  0  0  0  0  0  0  0  0  0
   11.0002   10.8890   20.0262 C   0  0  0  0  0  0  0  0  0  0  0  0
    2.1721    7.7393   20.0315 O   0  0  0  0  0  0  0  0  0  0  0  0
    9.1107   10.3880   21.3769 N   0  0  0  0  0  0  0  0  0  0  0  0
    3.9102    9.2008   20.3124 C   0  0  0  0  0  0  0  0  0  0  0  0
   12.7292   10.9960   18.4597 C   0  0  0  0  0  0  0  0  0  0  0  0
    9.3798    6.6793   23.6625 C   0  0  0  0  0  0  0  0  0  0  0  0
   14.7425   10.0739   19.0802 O   0  0  0  0  0  0  0  0  0  0  0  0
    5.1894    9.4673   20.7118 C   0  0  0  0  0  0  0  0  0  0  0  0
    7.3773    8.8224   21.4870 C   0  0  0  0  0  0  0  0  0  0  0  0
    8.4391    6.6439   21.0235 C   0  0  0  0  0  0  0  0  0  0  0  0
    9.6494   11.1353   20.4167 C   0  0  0  0  0  0  0  0  0  0  0  0
    8.1431    7.6829   21.9046 C   0  0  0  0  0  0  0  0  0  0  0  0
    7.7796   10.1314   21.5115 N   0  0  0  0  0  0  0  0  0  0  0  0
    9.2768    5.6183   21.4437 C   0  0  0  0  0  0  0  0  0  0  0  0
    8.6315    7.7322   23.1768 C   0  0  0  0  0  0  0  0  0  0  0  0
   13.0537    9.9821   20.5781 C   0  0  0  0  0  0  0  0  0  0  0  0
   10.3850    4.6575   23.2386 O   0  0  0  0  0  0  0  0  0  0  0  0
    4.2069    6.8450   20.7994 C   0  0  0  0  0  0  0  0  0  0  0  0
    3.0726   10.1043   19.8522 O   0  0  0  0  0  0  0  0  0  0  0  0
    5.5057    7.1196   21.1155 C   0  0  0  0  0  0  0  0  0  0  0  0
    7.0367   11.0229   21.9948 O   0  0  0  0  0  0  0  0  0  0  0  0
  1  8  4  0
  1 12  4  0
  2  9  1  0
  2 11  4  0
  2 25  4  0
  3 12  4  0
  3 14  1  0
  3 23  4  0
  4 13  4  0
  4 21  4  0
  4 24  1  0
  5  8  4  0
  5 23  4  0
  6 18  2  0
  7 15  4  0
  7 16  1  0
  7 27  4  0
  8 18  1  0
 10 18  1  0
 10 20  1  0
 11 15  4  0
 11 26  1  0
 13 22  4  0
 16 19  1  0
 16 20  2  0
 17 19  4  0
 17 21  4  0
 19 22  4  0
 20 28  1  0
 25 27  4  0
M  END
$$$$

 Created by Python create_sdf_string function

 28 30  0  0  0  0  0  0  0  0999 V2000
   11.4592   11.2893   18.7941 C   0  0  0  0  0  0  0  0  0  0  0  0
    3.4202    7.9009   20.3866 C   0  0  0  0  0  0  0  0  0  0  0  0
   13.5280   10.3522   19.3586 C   0  0  0  0  0  0  0  0  0  0  0  0
    9.6923    5.6468   22.7891 C   0  0  0  0  0  0  0  0  0  0  0  0
   11.7756   10.2554   20.8841 N   0  0  0  0  0  0  0  0  0  0  0  0
    8.9876   11.9370   19.8757 O   0  0  0  0  0  0  0  0  0  0  0  0
    6.0167    8.4478   21.1089 C   0  0  0  0  0  0  0  0  0  0  0  0
   11.0002   10.8890   20.0262 C   0  0  0  0  0  0  0  0  0  0  0  0
    2.1721    7.7393   20.0315 O   0  0  0  0  0  0  0  0  0  0  0  0
    9.1107   10.3880   21.3769 N   0  0  0  0  0  0  0  0  0  0  0  0
    3.9102    9.2008   20.3124 C   0  0  0  0  0  0  0  0  0  0  0  0
   12.7292   10.9960   18.4597 C   0  0  0  0  0  0  0  0  0  0  0  0
    9.3798    6.6793   23.6625 C   0  0  0  0  0  0  0  0  0  0  0  0
   14.7425   10.0739   19.0802 O   0  0  0  0  0  0  0  0  0  0  0  0
    5.1894    9.4673   20.7118 C   0  0  0  0  0  0  0  0  0  0  0  0
    7.3773    8.8224   21.4870 C   0  0  0  0  0  0  0  0  0  0  0  0
    8.4391    6.6439   21.0235 C   0  0  0  0  0  0  0  0  0  0  0  0
    9.6494   11.1353   20.4167 C   0  0  0  0  0  0  0  0  0  0  0  0
    8.1431    7.6829   21.9046 C   0  0  0  0  0  0  0  0  0  0  0  0
    7.7796   10.1314   21.5115 N   0  0  0  0  0  0  0  0  0  0  0  0
    9.2768    5.6183   21.4437 C   0  0  0  0  0  0  0  0  0  0  0  0
    8.6315    7.7322   23.1768 C   0  0  0  0  0  0  0  0  0  0  0  0
   13.0537    9.9821   20.5781 C   0  0  0  0  0  0  0  0  0  0  0  0
   10.3850    4.6575   23.2386 O   0  0  0  0  0  0  0  0  0  0  0  0
    4.2069    6.8450   20.7994 C   0  0  0  0  0  0  0  0  0  0  0  0
    3.0726   10.1043   19.8522 O   0  0  0  0  0  0  0  0  0  0  0  0
    5.5057    7.1196   21.1155 C   0  0  0  0  0  0  0  0  0  0  0  0
    7.0367   11.0229   21.9948 O   0  0  0  0  0  0  0  0  0  0  0  0
  1  8  4  0
  1 12  4  0
  2  9  1  0
  2 11  4  0
  2 25  4  0
  3 12  4  0
  3 14  1  0
  3 23  4  0
  4 13  4  0
  4 21  4  0
  4 24  1  0
  5  8  4  0
  5 23  4  0
  6 18  2  0
  7 15  4  0
  7 16  1  0
  7 27  4  0
  8 18  1  0
 10 18  1  0
 10 20  1  0
 11 15  4  0
 11 26  1  0
 13 22  4  0
 16 19  1  0
 16 20  2  0
 17 19  4  0
 17 21  4  0
 19 22  4  0
 20 28  1  0
 25 27  4  0
M  END
$$$$

 Created by Python create_sdf_string function

 28 30  0  0  0  0  0  0  0  0999 V2000
   11.4592   11.2893   18.7941 C   0  0  0  0  0  0  0  0  0  0  0  0
    3.4202    7.9009   20.3866 C   0  0  0  0  0  0  0  0  0  0  0  0
   13.5280   10.3522   19.3586 C   0  0  0  0  0  0  0  0  0  0  0  0
    9.6923    5.6468   22.7891 C   0  0  0  0  0  0  0  0  0  0  0  0
   11.7756   10.2554   20.8841 N   0  0  0  0  0  0  0  0  0  0  0  0
    8.9876   11.9370   19.8757 O   0  0  0  0  0  0  0  0  0  0  0  0
    6.0167    8.4478   21.1089 C   0  0  0  0  0  0  0  0  0  0  0  0
   11.0002   10.8890   20.0262 C   0  0  0  0  0  0  0  0  0  0  0  0
    2.1721    7.7393   20.0315 O   0  0  0  0  0  0  0  0  0  0  0  0
    9.1107   10.3880   21.3769 N   0  0  0  0  0  0  0  0  0  0  0  0
    3.9102    9.2008   20.3124 C   0  0  0  0  0  0  0  0  0  0  0  0
   12.7292   10.9960   18.4597 C   0  0  0  0  0  0  0  0  0  0  0  0
    9.3798    6.6793   23.6625 C   0  0  0  0  0  0  0  0  0  0  0  0
   14.7425   10.0739   19.0802 O   0  0  0  0  0  0  0  0  0  0  0  0
    5.1894    9.4673   20.7118 C   0  0  0  0  0  0  0  0  0  0  0  0
    7.3773    8.8224   21.4870 C   0  0  0  0  0  0  0  0  0  0  0  0
    8.4391    6.6439   21.0235 C   0  0  0  0  0  0  0  0  0  0  0  0
    9.6494   11.1353   20.4167 C   0  0  0  0  0  0  0  0  0  0  0  0
    8.1431    7.6829   21.9046 C   0  0  0  0  0  0  0  0  0  0  0  0
    7.7796   10.1314   21.5115 N   0  0  0  0  0  0  0  0  0  0  0  0
    9.2768    5.6183   21.4437 C   0  0  0  0  0  0  0  0  0  0  0  0
    8.6315    7.7322   23.1768 C   0  0  0  0  0  0  0  0  0  0  0  0
   13.0537    9.9821   20.5781 C   0  0  0  0  0  0  0  0  0  0  0  0
   10.3850    4.6575   23.2386 O   0  0  0  0  0  0  0  0  0  0  0  0
    4.2069    6.8450   20.7994 C   0  0  0  0  0  0  0  0  0  0  0  0
    3.0726   10.1043   19.8522 O   0  0  0  0  0  0  0  0  0  0  0  0
    5.5057    7.1196   21.1155 C   0  0  0  0  0  0  0  0  0  0  0  0
    7.0367   11.0229   21.9948 O   0  0  0  0  0  0  0  0  0  0  0  0
  1  8  4  0
  1 12  4  0
  2  9  1  0
  2 11  4  0
  2 25  4  0
  3 12  4  0
  3 14  1  0
  3 23  4  0
  4 13  4  0
  4 21  4  0
  4 24  1  0
  5  8  4  0
  5 23  4  0
  6 18  2  0
  7 15  4  0
  7 16  1  0
  7 27  4  0
  8 18  1  0
 10 18  1  0
 10 20  1  0
 11 15  4  0
 11 26  1  0
 13 22  4  0
 16 19  1  0
 16 20  2  0
 17 19  4  0
 17 21  4  0
 19 22  4  0
 20 28  1  0
 25 27  4  0
M  END
$$$$

 Created by Python create_sdf_string function

 28 30  0  0  0  0  0  0  0  0999 V2000
   11.4592   11.2893   18.7941 C   0  0  0  0  0  0  0  0  0  0  0  0
    3.4202    7.9009   20.3866 C   0  0  0  0  0  0  0  0  0  0  0  0
   13.5280   10.3522   19.3586 C   0  0  0  0  0  0  0  0  0  0  0  0
    9.6923    5.6468   22.7891 C   0  0  0  0  0  0  0  0  0  0  0  0
   11.7756   10.2554   20.8841 N   0  0  0  0  0  0  0  0  0  0  0  0
    8.9876   11.9370   19.8757 O   0  0  0  0  0  0  0  0  0  0  0  0
    6.0167    8.4478   21.1089 C   0  0  0  0  0  0  0  0  0  0  0  0
   11.0002   10.8890   20.0262 C   0  0  0  0  0  0  0  0  0  0  0  0
    2.1721    7.7393   20.0315 O   0  0  0  0  0  0  0  0  0  0  0  0
    9.1107   10.3880   21.3769 N   0  0  0  0  0  0  0  0  0  0  0  0
    3.9102    9.2008   20.3124 C   0  0  0  0  0  0  0  0  0  0  0  0
   12.7292   10.9960   18.4597 C   0  0  0  0  0  0  0  0  0  0  0  0
    9.3798    6.6793   23.6625 C   0  0  0  0  0  0  0  0  0  0  0  0
   14.7425   10.0739   19.0802 O   0  0  0  0  0  0  0  0  0  0  0  0
    5.1894    9.4673   20.7118 C   0  0  0  0  0  0  0  0  0  0  0  0
    7.3773    8.8224   21.4870 C   0  0  0  0  0  0  0  0  0  0  0  0
    8.4391    6.6439   21.0235 C   0  0  0  0  0  0  0  0  0  0  0  0
    9.6494   11.1353   20.4167 C   0  0  0  0  0  0  0  0  0  0  0  0
    8.1431    7.6829   21.9046 C   0  0  0  0  0  0  0  0  0  0  0  0
    7.7796   10.1314   21.5115 N   0  0  0  0  0  0  0  0  0  0  0  0
    9.2768    5.6183   21.4437 C   0  0  0  0  0  0  0  0  0  0  0  0
    8.6315    7.7322   23.1768 C   0  0  0  0  0  0  0  0  0  0  0  0
   13.0537    9.9821   20.5781 C   0  0  0  0  0  0  0  0  0  0  0  0
   10.3850    4.6575   23.2386 O   0  0  0  0  0  0  0  0  0  0  0  0
    4.2069    6.8450   20.7994 C   0  0  0  0  0  0  0  0  0  0  0  0
    3.0726   10.1043   19.8522 O   0  0  0  0  0  0  0  0  0  0  0  0
    5.5057    7.1196   21.1155 C   0  0  0  0  0  0  0  0  0  0  0  0
    7.0367   11.0229   21.9948 O   0  0  0  0  0  0  0  0  0  0  0  0
  1  8  4  0
  1 12  4  0
  2  9  1  0
  2 11  4  0
  2 25  4  0
  3 12  4  0
  3 14  1  0
  3 23  4  0
  4 13  4  0
  4 21  4  0
  4 24  1  0
  5  8  4  0
  5 23  4  0
  6 18  2  0
  7 15  4  0
  7 16  1  0
  7 27  4  0
  8 18  1  0
 10 18  1  0
 10 20  1  0
 11 15  4  0
 11 26  1  0
 13 22  4  0
 16 19  1  0
 16 20  2  0
 17 19  4  0
 17 21  4  0
 19 22  4  0
 20 28  1  0
 25 27  4  0
M  END
$$$$

 Created by Python create_sdf_string function

 28 30  0  0  0  0  0  0  0  0999 V2000
   11.4592   11.2893   18.7941 C   0  0  0  0  0  0  0  0  0  0  0  0
    3.4202    7.9009   20.3866 C   0  0  0  0  0  0  0  0  0  0  0  0
   13.5280   10.3522   19.3586 C   0  0  0  0  0  0  0  0  0  0  0  0
    9.6923    5.6468   22.7891 C   0  0  0  0  0  0  0  0  0  0  0  0
   11.7756   10.2554   20.8841 N   0  0  0  0  0  0  0  0  0  0  0  0
    8.9876   11.9370   19.8757 O   0  0  0  0  0  0  0  0  0  0  0  0
    6.0167    8.4478   21.1089 C   0  0  0  0  0  0  0  0  0  0  0  0
   11.0002   10.8890   20.0262 C   0  0  0  0  0  0  0  0  0  0  0  0
    2.1721    7.7393   20.0315 O   0  0  0  0  0  0  0  0  0  0  0  0
    9.1107   10.3880   21.3769 N   0  0  0  0  0  0  0  0  0  0  0  0
    3.9102    9.2008   20.3124 C   0  0  0  0  0  0  0  0  0  0  0  0
   12.7292   10.9960   18.4597 C   0  0  0  0  0  0  0  0  0  0  0  0
    9.3798    6.6793   23.6625 C   0  0  0  0  0  0  0  0  0  0  0  0
   14.7425   10.0739   19.0802 O   0  0  0  0  0  0  0  0  0  0  0  0
    5.1894    9.4673   20.7118 C   0  0  0  0  0  0  0  0  0  0  0  0
    7.3773    8.8224   21.4870 C   0  0  0  0  0  0  0  0  0  0  0  0
    8.4391    6.6439   21.0235 C   0  0  0  0  0  0  0  0  0  0  0  0
    9.6494   11.1353   20.4167 C   0  0  0  0  0  0  0  0  0  0  0  0
    8.1431    7.6829   21.9046 C   0  0  0  0  0  0  0  0  0  0  0  0
    7.7796   10.1314   21.5115 N   0  0  0  0  0  0  0  0  0  0  0  0
    9.2768    5.6183   21.4437 C   0  0  0  0  0  0  0  0  0  0  0  0
    8.6315    7.7322   23.1768 C   0  0  0  0  0  0  0  0  0  0  0  0
   13.0537    9.9821   20.5781 C   0  0  0  0  0  0  0  0  0  0  0  0
   10.3850    4.6575   23.2386 O   0  0  0  0  0  0  0  0  0  0  0  0
    4.2069    6.8450   20.7994 C   0  0  0  0  0  0  0  0  0  0  0  0
    3.0726   10.1043   19.8522 O   0  0  0  0  0  0  0  0  0  0  0  0
    5.5057    7.1196   21.1155 C   0  0  0  0  0  0  0  0  0  0  0  0
    7.0367   11.0229   21.9948 O   0  0  0  0  0  0  0  0  0  0  0  0
  1  8  4  0
  1 12  4  0
  2  9  1  0
  2 11  4  0
  2 25  4  0
  3 12  4  0
  3 14  1  0
  3 23  4  0
  4 13  4  0
  4 21  4  0
  4 24  1  0
  5  8  4  0
  5 23  4  0
  6 18  2  0
  7 15  4  0
  7 16  1  0
  7 27  4  0
  8 18  1  0
 10 18  1  0
 10 20  1  0
 11 15  4  0
 11 26  1  0
 13 22  4  0
 16 19  1  0
 16 20  2  0
 17 19  4  0
 17 21  4  0
 19 22  4  0
 20 28  1  0
 25 27  4  0
M  END
$$$$

 Created by Python create_sdf_string function

 28 30  0  0  0  0  0  0  0  0999 V2000
   11.4592   11.2893   18.7941 C   0  0  0  0  0  0  0  0  0  0  0  0
    3.4202    7.9009   20.3866 C   0  0  0  0  0  0  0  0  0  0  0  0
   13.5280   10.3522   19.3586 C   0  0  0  0  0  0  0  0  0  0  0  0
    9.6923    5.6468   22.7891 C   0  0  0  0  0  0  0  0  0  0  0  0
   11.7756   10.2554   20.8841 N   0  0  0  0  0  0  0  0  0  0  0  0
    8.9876   11.9370   19.8757 O   0  0  0  0  0  0  0  0  0  0  0  0
    6.0167    8.4478   21.1089 C   0  0  0  0  0  0  0  0  0  0  0  0
   11.0002   10.8890   20.0262 C   0  0  0  0  0  0  0  0  0  0  0  0
    2.1721    7.7393   20.0315 O   0  0  0  0  0  0  0  0  0  0  0  0
    9.1107   10.3880   21.3769 N   0  0  0  0  0  0  0  0  0  0  0  0
    3.9102    9.2008   20.3124 C   0  0  0  0  0  0  0  0  0  0  0  0
   12.7292   10.9960   18.4597 C   0  0  0  0  0  0  0  0  0  0  0  0
    9.3798    6.6793   23.6625 C   0  0  0  0  0  0  0  0  0  0  0  0
   14.7425   10.0739   19.0802 O   0  0  0  0  0  0  0  0  0  0  0  0
    5.1894    9.4673   20.7118 C   0  0  0  0  0  0  0  0  0  0  0  0
    7.3773    8.8224   21.4870 C   0  0  0  0  0  0  0  0  0  0  0  0
    8.4391    6.6439   21.0235 C   0  0  0  0  0  0  0  0  0  0  0  0
    9.6494   11.1353   20.4167 C   0  0  0  0  0  0  0  0  0  0  0  0
    8.1431    7.6829   21.9046 C   0  0  0  0  0  0  0  0  0  0  0  0
    7.7796   10.1314   21.5115 N   0  0  0  0  0  0  0  0  0  0  0  0
    9.2768    5.6183   21.4437 C   0  0  0  0  0  0  0  0  0  0  0  0
    8.6315    7.7322   23.1768 C   0  0  0  0  0  0  0  0  0  0  0  0
   13.0537    9.9821   20.5781 C   0  0  0  0  0  0  0  0  0  0  0  0
   10.3850    4.6575   23.2386 O   0  0  0  0  0  0  0  0  0  0  0  0
    4.2069    6.8450   20.7994 C   0  0  0  0  0  0  0  0  0  0  0  0
    3.0726   10.1043   19.8522 O   0  0  0  0  0  0  0  0  0  0  0  0
    5.5057    7.1196   21.1155 C   0  0  0  0  0  0  0  0  0  0  0  0
    7.0367   11.0229   21.9948 O   0  0  0  0  0  0  0  0  0  0  0  0
  1  8  4  0
  1 12  4  0
  2  9  1  0
  2 11  4  0
  2 25  4  0
  3 12  4  0
  3 14  1  0
  3 23  4  0
  4 13  4  0
  4 21  4  0
  4 24  1  0
  5  8  4  0
  5 23  4  0
  6 18  2  0
  7 15  4  0
  7 16  1  0
  7 27  4  0
  8 18  1  0
 10 18  1  0
 10 20  1  0
 11 15  4  0
 11 26  1  0
 13 22  4  0
 16 19  1  0
 16 20  2  0
 17 19  4  0
 17 21  4  0
 19 22  4  0
 20 28  1  0
 25 27  4  0
M  END
$$$$

 Created by Python create_sdf_string function

 28 30  0  0  0  0  0  0  0  0999 V2000
   11.4592   11.2893   18.7941 C   0  0  0  0  0  0  0  0  0  0  0  0
    3.4202    7.9009   20.3866 C   0  0  0  0  0  0  0  0  0  0  0  0
   13.5280   10.3522   19.3586 C   0  0  0  0  0  0  0  0  0  0  0  0
    9.6923    5.6468   22.7891 C   0  0  0  0  0  0  0  0  0  0  0  0
   11.7756   10.2554   20.8841 N   0  0  0  0  0  0  0  0  0  0  0  0
    8.9876   11.9370   19.8757 O   0  0  0  0  0  0  0  0  0  0  0  0
    6.0167    8.4478   21.1089 C   0  0  0  0  0  0  0  0  0  0  0  0
   11.0002   10.8890   20.0262 C   0  0  0  0  0  0  0  0  0  0  0  0
    2.1721    7.7393   20.0315 O   0  0  0  0  0  0  0  0  0  0  0  0
    9.1107   10.3880   21.3769 N   0  0  0  0  0  0  0  0  0  0  0  0
    3.9102    9.2008   20.3124 C   0  0  0  0  0  0  0  0  0  0  0  0
   12.7292   10.9960   18.4597 C   0  0  0  0  0  0  0  0  0  0  0  0
    9.3798    6.6793   23.6625 C   0  0  0  0  0  0  0  0  0  0  0  0
   14.7425   10.0739   19.0802 O   0  0  0  0  0  0  0  0  0  0  0  0
    5.1894    9.4673   20.7118 C   0  0  0  0  0  0  0  0  0  0  0  0
    7.3773    8.8224   21.4870 C   0  0  0  0  0  0  0  0  0  0  0  0
    8.4391    6.6439   21.0235 C   0  0  0  0  0  0  0  0  0  0  0  0
    9.6494   11.1353   20.4167 C   0  0  0  0  0  0  0  0  0  0  0  0
    8.1431    7.6829   21.9046 C   0  0  0  0  0  0  0  0  0  0  0  0
    7.7796   10.1314   21.5115 N   0  0  0  0  0  0  0  0  0  0  0  0
    9.2768    5.6183   21.4437 C   0  0  0  0  0  0  0  0  0  0  0  0
    8.6315    7.7322   23.1768 C   0  0  0  0  0  0  0  0  0  0  0  0
   13.0537    9.9821   20.5781 C   0  0  0  0  0  0  0  0  0  0  0  0
   10.3850    4.6575   23.2386 O   0  0  0  0  0  0  0  0  0  0  0  0
    4.2069    6.8450   20.7994 C   0  0  0  0  0  0  0  0  0  0  0  0
    3.0726   10.1043   19.8522 O   0  0  0  0  0  0  0  0  0  0  0  0
    5.5057    7.1196   21.1155 C   0  0  0  0  0  0  0  0  0  0  0  0
    7.0367   11.0229   21.9948 O   0  0  0  0  0  0  0  0  0  0  0  0
  1  8  4  0
  1 12  4  0
  2  9  1  0
  2 11  4  0
  2 25  4  0
  3 12  4  0
  3 14  1  0
  3 23  4  0
  4 13  4  0
  4 21  4  0
  4 24  1  0
  5  8  4  0
  5 23  4  0
  6 18  2  0
  7 15  4  0
  7 16  1  0
  7 27  4  0
  8 18  1  0
 10 18  1  0
 10 20  1  0
 11 15  4  0
 11 26  1  0
 13 22  4  0
 16 19  1  0
 16 20  2  0
 17 19  4  0
 17 21  4  0
 19 22  4  0
 20 28  1  0
 25 27  4  0
M  END
$$$$

 Created by Python create_sdf_string function

 28 30  0  0  0  0  0  0  0  0999 V2000
   11.4592   11.2893   18.7941 C   0  0  0  0  0  0  0  0  0  0  0  0
    3.4202    7.9009   20.3866 C   0  0  0  0  0  0  0  0  0  0  0  0
   13.5280   10.3522   19.3586 C   0  0  0  0  0  0  0  0  0  0  0  0
    9.6923    5.6468   22.7891 C   0  0  0  0  0  0  0  0  0  0  0  0
   11.7756   10.2554   20.8841 N   0  0  0  0  0  0  0  0  0  0  0  0
    8.9876   11.9370   19.8757 O   0  0  0  0  0  0  0  0  0  0  0  0
    6.0167    8.4478   21.1089 C   0  0  0  0  0  0  0  0  0  0  0  0
   11.0002   10.8890   20.0262 C   0  0  0  0  0  0  0  0  0  0  0  0
    2.1721    7.7393   20.0315 O   0  0  0  0  0  0  0  0  0  0  0  0
    9.1107   10.3880   21.3769 N   0  0  0  0  0  0  0  0  0  0  0  0
    3.9102    9.2008   20.3124 C   0  0  0  0  0  0  0  0  0  0  0  0
   12.7292   10.9960   18.4597 C   0  0  0  0  0  0  0  0  0  0  0  0
    9.3798    6.6793   23.6625 C   0  0  0  0  0  0  0  0  0  0  0  0
   14.7425   10.0739   19.0802 O   0  0  0  0  0  0  0  0  0  0  0  0
    5.1894    9.4673   20.7118 C   0  0  0  0  0  0  0  0  0  0  0  0
    7.3773    8.8224   21.4870 C   0  0  0  0  0  0  0  0  0  0  0  0
    8.4391    6.6439   21.0235 C   0  0  0  0  0  0  0  0  0  0  0  0
    9.6494   11.1353   20.4167 C   0  0  0  0  0  0  0  0  0  0  0  0
    8.1431    7.6829   21.9046 C   0  0  0  0  0  0  0  0  0  0  0  0
    7.7796   10.1314   21.5115 N   0  0  0  0  0  0  0  0  0  0  0  0
    9.2768    5.6183   21.4437 C   0  0  0  0  0  0  0  0  0  0  0  0
    8.6315    7.7322   23.1768 C   0  0  0  0  0  0  0  0  0  0  0  0
   13.0537    9.9821   20.5781 C   0  0  0  0  0  0  0  0  0  0  0  0
   10.3850    4.6575   23.2386 O   0  0  0  0  0  0  0  0  0  0  0  0
    4.2069    6.8450   20.7994 C   0  0  0  0  0  0  0  0  0  0  0  0
    3.0726   10.1043   19.8522 O   0  0  0  0  0  0  0  0  0  0  0  0
    5.5057    7.1196   21.1155 C   0  0  0  0  0  0  0  0  0  0  0  0
    7.0367   11.0229   21.9948 O   0  0  0  0  0  0  0  0  0  0  0  0
  1  8  4  0
  1 12  4  0
  2  9  1  0
  2 11  4  0
  2 25  4  0
  3 12  4  0
  3 14  1  0
  3 23  4  0
  4 13  4  0
  4 21  4  0
  4 24  1  0
  5  8  4  0
  5 23  4  0
  6 18  2  0
  7 15  4  0
  7 16  1  0
  7 27  4  0
  8 18  1  0
 10 18  1  0
 10 20  1  0
 11 15  4  0
 11 26  1  0
 13 22  4  0
 16 19  1  0
 16 20  2  0
 17 19  4  0
 17 21  4  0
 19 22  4  0
 20 28  1  0
 25 27  4  0
M  END
$$$$

 Created by Python create_sdf_string function

 28 30  0  0  0  0  0  0  0  0999 V2000
   11.4592   11.2893   18.7941 C   0  0  0  0  0  0  0  0  0  0  0  0
    3.4202    7.9009   20.3866 C   0  0  0  0  0  0  0  0  0  0  0  0
   13.5280   10.3522   19.3586 C   0  0  0  0  0  0  0  0  0  0  0  0
    9.6923    5.6468   22.7891 C   0  0  0  0  0  0  0  0  0  0  0  0
   11.7756   10.2554   20.8841 N   0  0  0  0  0  0  0  0  0  0  0  0
    8.9876   11.9370   19.8757 O   0  0  0  0  0  0  0  0  0  0  0  0
    6.0167    8.4478   21.1089 C   0  0  0  0  0  0  0  0  0  0  0  0
   11.0002   10.8890   20.0262 C   0  0  0  0  0  0  0  0  0  0  0  0
    2.1721    7.7393   20.0315 O   0  0  0  0  0  0  0  0  0  0  0  0
    9.1107   10.3880   21.3769 N   0  0  0  0  0  0  0  0  0  0  0  0
    3.9102    9.2008   20.3124 C   0  0  0  0  0  0  0  0  0  0  0  0
   12.7292   10.9960   18.4597 C   0  0  0  0  0  0  0  0  0  0  0  0
    9.3798    6.6793   23.6625 C   0  0  0  0  0  0  0  0  0  0  0  0
   14.7425   10.0739   19.0802 O   0  0  0  0  0  0  0  0  0  0  0  0
    5.1894    9.4673   20.7118 C   0  0  0  0  0  0  0  0  0  0  0  0
    7.3773    8.8224   21.4870 C   0  0  0  0  0  0  0  0  0  0  0  0
    8.4391    6.6439   21.0235 C   0  0  0  0  0  0  0  0  0  0  0  0
    9.6494   11.1353   20.4167 C   0  0  0  0  0  0  0  0  0  0  0  0
    8.1431    7.6829   21.9046 C   0  0  0  0  0  0  0  0  0  0  0  0
    7.7796   10.1314   21.5115 N   0  0  0  0  0  0  0  0  0  0  0  0
    9.2768    5.6183   21.4437 C   0  0  0  0  0  0  0  0  0  0  0  0
    8.6315    7.7322   23.1768 C   0  0  0  0  0  0  0  0  0  0  0  0
   13.0537    9.9821   20.5781 C   0  0  0  0  0  0  0  0  0  0  0  0
   10.3850    4.6575   23.2386 O   0  0  0  0  0  0  0  0  0  0  0  0
    4.2069    6.8450   20.7994 C   0  0  0  0  0  0  0  0  0  0  0  0
    3.0726   10.1043   19.8522 O   0  0  0  0  0  0  0  0  0  0  0  0
    5.5057    7.1196   21.1155 C   0  0  0  0  0  0  0  0  0  0  0  0
    7.0367   11.0229   21.9948 O   0  0  0  0  0  0  0  0  0  0  0  0
  1  8  4  0
  1 12  4  0
  2  9  1  0
  2 11  4  0
  2 25  4  0
  3 12  4  0
  3 14  1  0
  3 23  4  0
  4 13  4  0
  4 21  4  0
  4 24  1  0
  5  8  4  0
  5 23  4  0
  6 18  2  0
  7 15  4  0
  7 16  1  0
  7 27  4  0
  8 18  1  0
 10 18  1  0
 10 20  1  0
 11 15  4  0
 11 26  1  0
 13 22  4  0
 16 19  1  0
 16 20  2  0
 17 19  4  0
 17 21  4  0
 19 22  4  0
 20 28  1  0
 25 27  4  0
M  END
$$$$

 Created by Python create_sdf_string function

 28 30  0  0  0  0  0  0  0  0999 V2000
   11.4592   11.2893   18.7941 C   0  0  0  0  0  0  0  0  0  0  0  0
    3.4202    7.9009   20.3866 C   0  0  0  0  0  0  0  0  0  0  0  0
   13.5280   10.3522   19.3586 C   0  0  0  0  0  0  0  0  0  0  0  0
    9.6923    5.6468   22.7891 C   0  0  0  0  0  0  0  0  0  0  0  0
   11.7756   10.2554   20.8841 N   0  0  0  0  0  0  0  0  0  0  0  0
    8.9876   11.9370   19.8757 O   0  0  0  0  0  0  0  0  0  0  0  0
    6.0167    8.4478   21.1089 C   0  0  0  0  0  0  0  0  0  0  0  0
   11.0002   10.8890   20.0262 C   0  0  0  0  0  0  0  0  0  0  0  0
    2.1721    7.7393   20.0315 O   0  0  0  0  0  0  0  0  0  0  0  0
    9.1107   10.3880   21.3769 N   0  0  0  0  0  0  0  0  0  0  0  0
    3.9102    9.2008   20.3124 C   0  0  0  0  0  0  0  0  0  0  0  0
   12.7292   10.9960   18.4597 C   0  0  0  0  0  0  0  0  0  0  0  0
    9.3798    6.6793   23.6625 C   0  0  0  0  0  0  0  0  0  0  0  0
   14.7425   10.0739   19.0802 O   0  0  0  0  0  0  0  0  0  0  0  0
    5.1894    9.4673   20.7118 C   0  0  0  0  0  0  0  0  0  0  0  0
    7.3773    8.8224   21.4870 C   0  0  0  0  0  0  0  0  0  0  0  0
    8.4391    6.6439   21.0235 C   0  0  0  0  0  0  0  0  0  0  0  0
    9.6494   11.1353   20.4167 C   0  0  0  0  0  0  0  0  0  0  0  0
    8.1431    7.6829   21.9046 C   0  0  0  0  0  0  0  0  0  0  0  0
    7.7796   10.1314   21.5115 N   0  0  0  0  0  0  0  0  0  0  0  0
    9.2768    5.6183   21.4437 C   0  0  0  0  0  0  0  0  0  0  0  0
    8.6315    7.7322   23.1768 C   0  0  0  0  0  0  0  0  0  0  0  0
   13.0537    9.9821   20.5781 C   0  0  0  0  0  0  0  0  0  0  0  0
   10.3850    4.6575   23.2386 O   0  0  0  0  0  0  0  0  0  0  0  0
    4.2069    6.8450   20.7994 C   0  0  0  0  0  0  0  0  0  0  0  0
    3.0726   10.1043   19.8522 O   0  0  0  0  0  0  0  0  0  0  0  0
    5.5057    7.1196   21.1155 C   0  0  0  0  0  0  0  0  0  0  0  0
    7.0367   11.0229   21.9948 O   0  0  0  0  0  0  0  0  0  0  0  0
  1  8  4  0
  1 12  4  0
  2  9  1  0
  2 11  4  0
  2 25  4  0
  3 12  4  0
  3 14  1  0
  3 23  4  0
  4 13  4  0
  4 21  4  0
  4 24  1  0
  5  8  4  0
  5 23  4  0
  6 18  2  0
  7 15  4  0
  7 16  1  0
  7 27  4  0
  8 18  1  0
 10 18  1  0
 10 20  1  0
 11 15  4  0
 11 26  1  0
 13 22  4  0
 16 19  1  0
 16 20  2  0
 17 19  4  0
 17 21  4  0
 19 22  4  0
 20 28  1  0
 25 27  4  0
M  END
$$$$

 Created by Python create_sdf_string function

 28 30  0  0  0  0  0  0  0  0999 V2000
   11.4592   11.2893   18.7941 C   0  0  0  0  0  0  0  0  0  0  0  0
    3.4202    7.9009   20.3866 C   0  0  0  0  0  0  0  0  0  0  0  0
   13.5280   10.3522   19.3586 C   0  0  0  0  0  0  0  0  0  0  0  0
    9.6923    5.6468   22.7891 C   0  0  0  0  0  0  0  0  0  0  0  0
   11.7756   10.2554   20.8841 N   0  0  0  0  0  0  0  0  0  0  0  0
    8.9876   11.9370   19.8757 O   0  0  0  0  0  0  0  0  0  0  0  0
    6.0167    8.4478   21.1089 C   0  0  0  0  0  0  0  0  0  0  0  0
   11.0002   10.8890   20.0262 C   0  0  0  0  0  0  0  0  0  0  0  0
    2.1721    7.7393   20.0315 O   0  0  0  0  0  0  0  0  0  0  0  0
    9.1107   10.3880   21.3769 N   0  0  0  0  0  0  0  0  0  0  0  0
    3.9102    9.2008   20.3124 C   0  0  0  0  0  0  0  0  0  0  0  0
   12.7292   10.9960   18.4597 C   0  0  0  0  0  0  0  0  0  0  0  0
    9.3798    6.6793   23.6625 C   0  0  0  0  0  0  0  0  0  0  0  0
   14.7425   10.0739   19.0802 O   0  0  0  0  0  0  0  0  0  0  0  0
    5.1894    9.4673   20.7118 C   0  0  0  0  0  0  0  0  0  0  0  0
    7.3773    8.8224   21.4870 C   0  0  0  0  0  0  0  0  0  0  0  0
    8.4391    6.6439   21.0235 C   0  0  0  0  0  0  0  0  0  0  0  0
    9.6494   11.1353   20.4167 C   0  0  0  0  0  0  0  0  0  0  0  0
    8.1431    7.6829   21.9046 C   0  0  0  0  0  0  0  0  0  0  0  0
    7.7796   10.1314   21.5115 N   0  0  0  0  0  0  0  0  0  0  0  0
    9.2768    5.6183   21.4437 C   0  0  0  0  0  0  0  0  0  0  0  0
    8.6315    7.7322   23.1768 C   0  0  0  0  0  0  0  0  0  0  0  0
   13.0537    9.9821   20.5781 C   0  0  0  0  0  0  0  0  0  0  0  0
   10.3850    4.6575   23.2386 O   0  0  0  0  0  0  0  0  0  0  0  0
    4.2069    6.8450   20.7994 C   0  0  0  0  0  0  0  0  0  0  0  0
    3.0726   10.1043   19.8522 O   0  0  0  0  0  0  0  0  0  0  0  0
    5.5057    7.1196   21.1155 C   0  0  0  0  0  0  0  0  0  0  0  0
    7.0367   11.0229   21.9948 O   0  0  0  0  0  0  0  0  0  0  0  0
  1  8  4  0
  1 12  4  0
  2  9  1  0
  2 11  4  0
  2 25  4  0
  3 12  4  0
  3 14  1  0
  3 23  4  0
  4 13  4  0
  4 21  4  0
  4 24  1  0
  5  8  4  0
  5 23  4  0
  6 18  2  0
  7 15  4  0
  7 16  1  0
  7 27  4  0
  8 18  1  0
 10 18  1  0
 10 20  1  0
 11 15  4  0
 11 26  1  0
 13 22  4  0
 16 19  1  0
 16 20  2  0
 17 19  4  0
 17 21  4  0
 19 22  4  0
 20 28  1  0
 25 27  4  0
M  END
$$$$

 Created by Python create_sdf_string function

 28 30  0  0  0  0  0  0  0  0999 V2000
   11.4592   11.2893   18.7941 C   0  0  0  0  0  0  0  0  0  0  0  0
    3.4202    7.9009   20.3866 C   0  0  0  0  0  0  0  0  0  0  0  0
   13.5280   10.3522   19.3586 C   0  0  0  0  0  0  0  0  0  0  0  0
    9.6923    5.6468   22.7891 C   0  0  0  0  0  0  0  0  0  0  0  0
   11.7756   10.2554   20.8841 N   0  0  0  0  0  0  0  0  0  0  0  0
    8.9876   11.9370   19.8757 O   0  0  0  0  0  0  0  0  0  0  0  0
    6.0167    8.4478   21.1089 C   0  0  0  0  0  0  0  0  0  0  0  0
   11.0002   10.8890   20.0262 C   0  0  0  0  0  0  0  0  0  0  0  0
    2.1721    7.7393   20.0315 O   0  0  0  0  0  0  0  0  0  0  0  0
    9.1107   10.3880   21.3769 N   0  0  0  0  0  0  0  0  0  0  0  0
    3.9102    9.2008   20.3124 C   0  0  0  0  0  0  0  0  0  0  0  0
   12.7292   10.9960   18.4597 C   0  0  0  0  0  0  0  0  0  0  0  0
    9.3798    6.6793   23.6625 C   0  0  0  0  0  0  0  0  0  0  0  0
   14.7425   10.0739   19.0802 O   0  0  0  0  0  0  0  0  0  0  0  0
    5.1894    9.4673   20.7118 C   0  0  0  0  0  0  0  0  0  0  0  0
    7.3773    8.8224   21.4870 C   0  0  0  0  0  0  0  0  0  0  0  0
    8.4391    6.6439   21.0235 C   0  0  0  0  0  0  0  0  0  0  0  0
    9.6494   11.1353   20.4167 C   0  0  0  0  0  0  0  0  0  0  0  0
    8.1431    7.6829   21.9046 C   0  0  0  0  0  0  0  0  0  0  0  0
    7.7796   10.1314   21.5115 N   0  0  0  0  0  0  0  0  0  0  0  0
    9.2768    5.6183   21.4437 C   0  0  0  0  0  0  0  0  0  0  0  0
    8.6315    7.7322   23.1768 C   0  0  0  0  0  0  0  0  0  0  0  0
   13.0537    9.9821   20.5781 C   0  0  0  0  0  0  0  0  0  0  0  0
   10.3850    4.6575   23.2386 O   0  0  0  0  0  0  0  0  0  0  0  0
    4.2069    6.8450   20.7994 C   0  0  0  0  0  0  0  0  0  0  0  0
    3.0726   10.1043   19.8522 O   0  0  0  0  0  0  0  0  0  0  0  0
    5.5057    7.1196   21.1155 C   0  0  0  0  0  0  0  0  0  0  0  0
    7.0367   11.0229   21.9948 O   0  0  0  0  0  0  0  0  0  0  0  0
  1  8  4  0
  1 12  4  0
  2  9  1  0
  2 11  4  0
  2 25  4  0
  3 12  4  0
  3 14  1  0
  3 23  4  0
  4 13  4  0
  4 21  4  0
  4 24  1  0
  5  8  4  0
  5 23  4  0
  6 18  2  0
  7 15  4  0
  7 16  1  0
  7 27  4  0
  8 18  1  0
 10 18  1  0
 10 20  1  0
 11 15  4  0
 11 26  1  0
 13 22  4  0
 16 19  1  0
 16 20  2  0
 17 19  4  0
 17 21  4  0
 19 22  4  0
 20 28  1  0
 25 27  4  0
M  END
$$$$

 Created by Python create_sdf_string function

 28 30  0  0  0  0  0  0  0  0999 V2000
   11.4592   11.2893   18.7941 C   0  0  0  0  0  0  0  0  0  0  0  0
    3.4202    7.9009   20.3866 C   0  0  0  0  0  0  0  0  0  0  0  0
   13.5280   10.3522   19.3586 C   0  0  0  0  0  0  0  0  0  0  0  0
    9.6923    5.6468   22.7891 C   0  0  0  0  0  0  0  0  0  0  0  0
   11.7756   10.2554   20.8841 N   0  0  0  0  0  0  0  0  0  0  0  0
    8.9876   11.9370   19.8757 O   0  0  0  0  0  0  0  0  0  0  0  0
    6.0167    8.4478   21.1089 C   0  0  0  0  0  0  0  0  0  0  0  0
   11.0002   10.8890   20.0262 C   0  0  0  0  0  0  0  0  0  0  0  0
    2.1721    7.7393   20.0315 O   0  0  0  0  0  0  0  0  0  0  0  0
    9.1107   10.3880   21.3769 N   0  0  0  0  0  0  0  0  0  0  0  0
    3.9102    9.2008   20.3124 C   0  0  0  0  0  0  0  0  0  0  0  0
   12.7292   10.9960   18.4597 C   0  0  0  0  0  0  0  0  0  0  0  0
    9.3798    6.6793   23.6625 C   0  0  0  0  0  0  0  0  0  0  0  0
   14.7425   10.0739   19.0802 O   0  0  0  0  0  0  0  0  0  0  0  0
    5.1894    9.4673   20.7118 C   0  0  0  0  0  0  0  0  0  0  0  0
    7.3773    8.8224   21.4870 C   0  0  0  0  0  0  0  0  0  0  0  0
    8.4391    6.6439   21.0235 C   0  0  0  0  0  0  0  0  0  0  0  0
    9.6494   11.1353   20.4167 C   0  0  0  0  0  0  0  0  0  0  0  0
    8.1431    7.6829   21.9046 C   0  0  0  0  0  0  0  0  0  0  0  0
    7.7796   10.1314   21.5115 N   0  0  0  0  0  0  0  0  0  0  0  0
    9.2768    5.6183   21.4437 C   0  0  0  0  0  0  0  0  0  0  0  0
    8.6315    7.7322   23.1768 C   0  0  0  0  0  0  0  0  0  0  0  0
   13.0537    9.9821   20.5781 C   0  0  0  0  0  0  0  0  0  0  0  0
   10.3850    4.6575   23.2386 O   0  0  0  0  0  0  0  0  0  0  0  0
    4.2069    6.8450   20.7994 C   0  0  0  0  0  0  0  0  0  0  0  0
    3.0726   10.1043   19.8522 O   0  0  0  0  0  0  0  0  0  0  0  0
    5.5057    7.1196   21.1155 C   0  0  0  0  0  0  0  0  0  0  0  0
    7.0367   11.0229   21.9948 O   0  0  0  0  0  0  0  0  0  0  0  0
  1  8  4  0
  1 12  4  0
  2  9  1  0
  2 11  4  0
  2 25  4  0
  3 12  4  0
  3 14  1  0
  3 23  4  0
  4 13  4  0
  4 21  4  0
  4 24  1  0
  5  8  4  0
  5 23  4  0
  6 18  2  0
  7 15  4  0
  7 16  1  0
  7 27  4  0
  8 18  1  0
 10 18  1  0
 10 20  1  0
 11 15  4  0
 11 26  1  0
 13 22  4  0
 16 19  1  0
 16 20  2  0
 17 19  4  0
 17 21  4  0
 19 22  4  0
 20 28  1  0
 25 27  4  0
M  END
$$$$

 Created by Python create_sdf_string function

 28 30  0  0  0  0  0  0  0  0999 V2000
   11.4592   11.2893   18.7941 C   0  0  0  0  0  0  0  0  0  0  0  0
    3.4202    7.9009   20.3866 C   0  0  0  0  0  0  0  0  0  0  0  0
   13.5280   10.3522   19.3586 C   0  0  0  0  0  0  0  0  0  0  0  0
    9.6923    5.6468   22.7891 C   0  0  0  0  0  0  0  0  0  0  0  0
   11.7756   10.2554   20.8841 N   0  0  0  0  0  0  0  0  0  0  0  0
    8.9876   11.9370   19.8757 O   0  0  0  0  0  0  0  0  0  0  0  0
    6.0167    8.4478   21.1089 C   0  0  0  0  0  0  0  0  0  0  0  0
   11.0002   10.8890   20.0262 C   0  0  0  0  0  0  0  0  0  0  0  0
    2.1721    7.7393   20.0315 O   0  0  0  0  0  0  0  0  0  0  0  0
    9.1107   10.3880   21.3769 N   0  0  0  0  0  0  0  0  0  0  0  0
    3.9102    9.2008   20.3124 C   0  0  0  0  0  0  0  0  0  0  0  0
   12.7292   10.9960   18.4597 C   0  0  0  0  0  0  0  0  0  0  0  0
    9.3798    6.6793   23.6625 C   0  0  0  0  0  0  0  0  0  0  0  0
   14.7425   10.0739   19.0802 O   0  0  0  0  0  0  0  0  0  0  0  0
    5.1894    9.4673   20.7118 C   0  0  0  0  0  0  0  0  0  0  0  0
    7.3773    8.8224   21.4870 C   0  0  0  0  0  0  0  0  0  0  0  0
    8.4391    6.6439   21.0235 C   0  0  0  0  0  0  0  0  0  0  0  0
    9.6494   11.1353   20.4167 C   0  0  0  0  0  0  0  0  0  0  0  0
    8.1431    7.6829   21.9046 C   0  0  0  0  0  0  0  0  0  0  0  0
    7.7796   10.1314   21.5115 N   0  0  0  0  0  0  0  0  0  0  0  0
    9.2768    5.6183   21.4437 C   0  0  0  0  0  0  0  0  0  0  0  0
    8.6315    7.7322   23.1768 C   0  0  0  0  0  0  0  0  0  0  0  0
   13.0537    9.9821   20.5781 C   0  0  0  0  0  0  0  0  0  0  0  0
   10.3850    4.6575   23.2386 O   0  0  0  0  0  0  0  0  0  0  0  0
    4.2069    6.8450   20.7994 C   0  0  0  0  0  0  0  0  0  0  0  0
    3.0726   10.1043   19.8522 O   0  0  0  0  0  0  0  0  0  0  0  0
    5.5057    7.1196   21.1155 C   0  0  0  0  0  0  0  0  0  0  0  0
    7.0367   11.0229   21.9948 O   0  0  0  0  0  0  0  0  0  0  0  0
  1  8  4  0
  1 12  4  0
  2  9  1  0
  2 11  4  0
  2 25  4  0
  3 12  4  0
  3 14  1  0
  3 23  4  0
  4 13  4  0
  4 21  4  0
  4 24  1  0
  5  8  4  0
  5 23  4  0
  6 18  2  0
  7 15  4  0
  7 16  1  0
  7 27  4  0
  8 18  1  0
 10 18  1  0
 10 20  1  0
 11 15  4  0
 11 26  1  0
 13 22  4  0
 16 19  1  0
 16 20  2  0
 17 19  4  0
 17 21  4  0
 19 22  4  0
 20 28  1  0
 25 27  4  0
M  END
$$$$

 Created by Python create_sdf_string function

 28 30  0  0  0  0  0  0  0  0999 V2000
   11.4592   11.2893   18.7941 C   0  0  0  0  0  0  0  0  0  0  0  0
    3.4202    7.9009   20.3866 C   0  0  0  0  0  0  0  0  0  0  0  0
   13.5280   10.3522   19.3586 C   0  0  0  0  0  0  0  0  0  0  0  0
    9.6923    5.6468   22.7891 C   0  0  0  0  0  0  0  0  0  0  0  0
   11.7756   10.2554   20.8841 N   0  0  0  0  0  0  0  0  0  0  0  0
    8.9876   11.9370   19.8757 O   0  0  0  0  0  0  0  0  0  0  0  0
    6.0167    8.4478   21.1089 C   0  0  0  0  0  0  0  0  0  0  0  0
   11.0002   10.8890   20.0262 C   0  0  0  0  0  0  0  0  0  0  0  0
    2.1721    7.7393   20.0315 O   0  0  0  0  0  0  0  0  0  0  0  0
    9.1107   10.3880   21.3769 N   0  0  0  0  0  0  0  0  0  0  0  0
    3.9102    9.2008   20.3124 C   0  0  0  0  0  0  0  0  0  0  0  0
   12.7292   10.9960   18.4597 C   0  0  0  0  0  0  0  0  0  0  0  0
    9.3798    6.6793   23.6625 C   0  0  0  0  0  0  0  0  0  0  0  0
   14.7425   10.0739   19.0802 O   0  0  0  0  0  0  0  0  0  0  0  0
    5.1894    9.4673   20.7118 C   0  0  0  0  0  0  0  0  0  0  0  0
    7.3773    8.8224   21.4870 C   0  0  0  0  0  0  0  0  0  0  0  0
    8.4391    6.6439   21.0235 C   0  0  0  0  0  0  0  0  0  0  0  0
    9.6494   11.1353   20.4167 C   0  0  0  0  0  0  0  0  0  0  0  0
    8.1431    7.6829   21.9046 C   0  0  0  0  0  0  0  0  0  0  0  0
    7.7796   10.1314   21.5115 N   0  0  0  0  0  0  0  0  0  0  0  0
    9.2768    5.6183   21.4437 C   0  0  0  0  0  0  0  0  0  0  0  0
    8.6315    7.7322   23.1768 C   0  0  0  0  0  0  0  0  0  0  0  0
   13.0537    9.9821   20.5781 C   0  0  0  0  0  0  0  0  0  0  0  0
   10.3850    4.6575   23.2386 O   0  0  0  0  0  0  0  0  0  0  0  0
    4.2069    6.8450   20.7994 C   0  0  0  0  0  0  0  0  0  0  0  0
    3.0726   10.1043   19.8522 O   0  0  0  0  0  0  0  0  0  0  0  0
    5.5057    7.1196   21.1155 C   0  0  0  0  0  0  0  0  0  0  0  0
    7.0367   11.0229   21.9948 O   0  0  0  0  0  0  0  0  0  0  0  0
  1  8  4  0
  1 12  4  0
  2  9  1  0
  2 11  4  0
  2 25  4  0
  3 12  4  0
  3 14  1  0
  3 23  4  0
  4 13  4  0
  4 21  4  0
  4 24  1  0
  5  8  4  0
  5 23  4  0
  6 18  2  0
  7 15  4  0
  7 16  1  0
  7 27  4  0
  8 18  1  0
 10 18  1  0
 10 20  1  0
 11 15  4  0
 11 26  1  0
 13 22  4  0
 16 19  1  0
 16 20  2  0
 17 19  4  0
 17 21  4  0
 19 22  4  0
 20 28  1  0
 25 27  4  0
M  END
$$$$

 Created by Python create_sdf_string function

 28 30  0  0  0  0  0  0  0  0999 V2000
   11.4592   11.2893   18.7941 C   0  0  0  0  0  0  0  0  0  0  0  0
    3.4202    7.9009   20.3866 C   0  0  0  0  0  0  0  0  0  0  0  0
   13.5280   10.3522   19.3586 C   0  0  0  0  0  0  0  0  0  0  0  0
    9.6923    5.6468   22.7891 C   0  0  0  0  0  0  0  0  0  0  0  0
   11.7756   10.2554   20.8841 N   0  0  0  0  0  0  0  0  0  0  0  0
    8.9876   11.9370   19.8757 O   0  0  0  0  0  0  0  0  0  0  0  0
    6.0167    8.4478   21.1089 C   0  0  0  0  0  0  0  0  0  0  0  0
   11.0002   10.8890   20.0262 C   0  0  0  0  0  0  0  0  0  0  0  0
    2.1721    7.7393   20.0315 O   0  0  0  0  0  0  0  0  0  0  0  0
    9.1107   10.3880   21.3769 N   0  0  0  0  0  0  0  0  0  0  0  0
    3.9102    9.2008   20.3124 C   0  0  0  0  0  0  0  0  0  0  0  0
   12.7292   10.9960   18.4597 C   0  0  0  0  0  0  0  0  0  0  0  0
    9.3798    6.6793   23.6625 C   0  0  0  0  0  0  0  0  0  0  0  0
   14.7425   10.0739   19.0802 O   0  0  0  0  0  0  0  0  0  0  0  0
    5.1894    9.4673   20.7118 C   0  0  0  0  0  0  0  0  0  0  0  0
    7.3773    8.8224   21.4870 C   0  0  0  0  0  0  0  0  0  0  0  0
    8.4391    6.6439   21.0235 C   0  0  0  0  0  0  0  0  0  0  0  0
    9.6494   11.1353   20.4167 C   0  0  0  0  0  0  0  0  0  0  0  0
    8.1431    7.6829   21.9046 C   0  0  0  0  0  0  0  0  0  0  0  0
    7.7796   10.1314   21.5115 N   0  0  0  0  0  0  0  0  0  0  0  0
    9.2768    5.6183   21.4437 C   0  0  0  0  0  0  0  0  0  0  0  0
    8.6315    7.7322   23.1768 C   0  0  0  0  0  0  0  0  0  0  0  0
   13.0537    9.9821   20.5781 C   0  0  0  0  0  0  0  0  0  0  0  0
   10.3850    4.6575   23.2386 O   0  0  0  0  0  0  0  0  0  0  0  0
    4.2069    6.8450   20.7994 C   0  0  0  0  0  0  0  0  0  0  0  0
    3.0726   10.1043   19.8522 O   0  0  0  0  0  0  0  0  0  0  0  0
    5.5057    7.1196   21.1155 C   0  0  0  0  0  0  0  0  0  0  0  0
    7.0367   11.0229   21.9948 O   0  0  0  0  0  0  0  0  0  0  0  0
  1  8  4  0
  1 12  4  0
  2  9  1  0
  2 11  4  0
  2 25  4  0
  3 12  4  0
  3 14  1  0
  3 23  4  0
  4 13  4  0
  4 21  4  0
  4 24  1  0
  5  8  4  0
  5 23  4  0
  6 18  2  0
  7 15  4  0
  7 16  1  0
  7 27  4  0
  8 18  1  0
 10 18  1  0
 10 20  1  0
 11 15  4  0
 11 26  1  0
 13 22  4  0
 16 19  1  0
 16 20  2  0
 17 19  4  0
 17 21  4  0
 19 22  4  0
 20 28  1  0
 25 27  4  0
M  END
$$$$

 Created by Python create_sdf_string function

 28 30  0  0  0  0  0  0  0  0999 V2000
   11.4592   11.2893   18.7941 C   0  0  0  0  0  0  0  0  0  0  0  0
    3.4202    7.9009   20.3866 C   0  0  0  0  0  0  0  0  0  0  0  0
   13.5280   10.3522   19.3586 C   0  0  0  0  0  0  0  0  0  0  0  0
    9.6923    5.6468   22.7891 C   0  0  0  0  0  0  0  0  0  0  0  0
   11.7756   10.2554   20.8841 N   0  0  0  0  0  0  0  0  0  0  0  0
    8.9876   11.9370   19.8757 O   0  0  0  0  0  0  0  0  0  0  0  0
    6.0167    8.4478   21.1089 C   0  0  0  0  0  0  0  0  0  0  0  0
   11.0002   10.8890   20.0262 C   0  0  0  0  0  0  0  0  0  0  0  0
    2.1721    7.7393   20.0315 O   0  0  0  0  0  0  0  0  0  0  0  0
    9.1107   10.3880   21.3769 N   0  0  0  0  0  0  0  0  0  0  0  0
    3.9102    9.2008   20.3124 C   0  0  0  0  0  0  0  0  0  0  0  0
   12.7292   10.9960   18.4597 C   0  0  0  0  0  0  0  0  0  0  0  0
    9.3798    6.6793   23.6625 C   0  0  0  0  0  0  0  0  0  0  0  0
   14.7425   10.0739   19.0802 O   0  0  0  0  0  0  0  0  0  0  0  0
    5.1894    9.4673   20.7118 C   0  0  0  0  0  0  0  0  0  0  0  0
    7.3773    8.8224   21.4870 C   0  0  0  0  0  0  0  0  0  0  0  0
    8.4391    6.6439   21.0235 C   0  0  0  0  0  0  0  0  0  0  0  0
    9.6494   11.1353   20.4167 C   0  0  0  0  0  0  0  0  0  0  0  0
    8.1431    7.6829   21.9046 C   0  0  0  0  0  0  0  0  0  0  0  0
    7.7796   10.1314   21.5115 N   0  0  0  0  0  0  0  0  0  0  0  0
    9.2768    5.6183   21.4437 C   0  0  0  0  0  0  0  0  0  0  0  0
    8.6315    7.7322   23.1768 C   0  0  0  0  0  0  0  0  0  0  0  0
   13.0537    9.9821   20.5781 C   0  0  0  0  0  0  0  0  0  0  0  0
   10.3850    4.6575   23.2386 O   0  0  0  0  0  0  0  0  0  0  0  0
    4.2069    6.8450   20.7994 C   0  0  0  0  0  0  0  0  0  0  0  0
    3.0726   10.1043   19.8522 O   0  0  0  0  0  0  0  0  0  0  0  0
    5.5057    7.1196   21.1155 C   0  0  0  0  0  0  0  0  0  0  0  0
    7.0367   11.0229   21.9948 O   0  0  0  0  0  0  0  0  0  0  0  0
  1  8  4  0
  1 12  4  0
  2  9  1  0
  2 11  4  0
  2 25  4  0
  3 12  4  0
  3 14  1  0
  3 23  4  0
  4 13  4  0
  4 21  4  0
  4 24  1  0
  5  8  4  0
  5 23  4  0
  6 18  2  0
  7 15  4  0
  7 16  1  0
  7 27  4  0
  8 18  1  0
 10 18  1  0
 10 20  1  0
 11 15  4  0
 11 26  1  0
 13 22  4  0
 16 19  1  0
 16 20  2  0
 17 19  4  0
 17 21  4  0
 19 22  4  0
 20 28  1  0
 25 27  4  0
M  END
$$$$

 Created by Python create_sdf_string function

 28 30  0  0  0  0  0  0  0  0999 V2000
   11.4592   11.2893   18.7941 C   0  0  0  0  0  0  0  0  0  0  0  0
    3.4202    7.9009   20.3866 C   0  0  0  0  0  0  0  0  0  0  0  0
   13.5280   10.3522   19.3586 C   0  0  0  0  0  0  0  0  0  0  0  0
    9.6923    5.6468   22.7891 C   0  0  0  0  0  0  0  0  0  0  0  0
   11.7756   10.2554   20.8841 N   0  0  0  0  0  0  0  0  0  0  0  0
    8.9876   11.9370   19.8757 O   0  0  0  0  0  0  0  0  0  0  0  0
    6.0167    8.4478   21.1089 C   0  0  0  0  0  0  0  0  0  0  0  0
   11.0002   10.8890   20.0262 C   0  0  0  0  0  0  0  0  0  0  0  0
    2.1721    7.7393   20.0315 O   0  0  0  0  0  0  0  0  0  0  0  0
    9.1107   10.3880   21.3769 N   0  0  0  0  0  0  0  0  0  0  0  0
    3.9102    9.2008   20.3124 C   0  0  0  0  0  0  0  0  0  0  0  0
   12.7292   10.9960   18.4597 C   0  0  0  0  0  0  0  0  0  0  0  0
    9.3798    6.6793   23.6625 C   0  0  0  0  0  0  0  0  0  0  0  0
   14.7425   10.0739   19.0802 O   0  0  0  0  0  0  0  0  0  0  0  0
    5.1894    9.4673   20.7118 C   0  0  0  0  0  0  0  0  0  0  0  0
    7.3773    8.8224   21.4870 C   0  0  0  0  0  0  0  0  0  0  0  0
    8.4391    6.6439   21.0235 C   0  0  0  0  0  0  0  0  0  0  0  0
    9.6494   11.1353   20.4167 C   0  0  0  0  0  0  0  0  0  0  0  0
    8.1431    7.6829   21.9046 C   0  0  0  0  0  0  0  0  0  0  0  0
    7.7796   10.1314   21.5115 N   0  0  0  0  0  0  0  0  0  0  0  0
    9.2768    5.6183   21.4437 C   0  0  0  0  0  0  0  0  0  0  0  0
    8.6315    7.7322   23.1768 C   0  0  0  0  0  0  0  0  0  0  0  0
   13.0537    9.9821   20.5781 C   0  0  0  0  0  0  0  0  0  0  0  0
   10.3850    4.6575   23.2386 O   0  0  0  0  0  0  0  0  0  0  0  0
    4.2069    6.8450   20.7994 C   0  0  0  0  0  0  0  0  0  0  0  0
    3.0726   10.1043   19.8522 O   0  0  0  0  0  0  0  0  0  0  0  0
    5.5057    7.1196   21.1155 C   0  0  0  0  0  0  0  0  0  0  0  0
    7.0367   11.0229   21.9948 O   0  0  0  0  0  0  0  0  0  0  0  0
  1  8  4  0
  1 12  4  0
  2  9  1  0
  2 11  4  0
  2 25  4  0
  3 12  4  0
  3 14  1  0
  3 23  4  0
  4 13  4  0
  4 21  4  0
  4 24  1  0
  5  8  4  0
  5 23  4  0
  6 18  2  0
  7 15  4  0
  7 16  1  0
  7 27  4  0
  8 18  1  0
 10 18  1  0
 10 20  1  0
 11 15  4  0
 11 26  1  0
 13 22  4  0
 16 19  1  0
 16 20  2  0
 17 19  4  0
 17 21  4  0
 19 22  4  0
 20 28  1  0
 25 27  4  0
M  END
$$$$

 Created by Python create_sdf_string function

 28 30  0  0  0  0  0  0  0  0999 V2000
   11.4592   11.2893   18.7941 C   0  0  0  0  0  0  0  0  0  0  0  0
    3.4202    7.9009   20.3866 C   0  0  0  0  0  0  0  0  0  0  0  0
   13.5280   10.3522   19.3586 C   0  0  0  0  0  0  0  0  0  0  0  0
    9.6923    5.6468   22.7891 C   0  0  0  0  0  0  0  0  0  0  0  0
   11.7756   10.2554   20.8841 N   0  0  0  0  0  0  0  0  0  0  0  0
    8.9876   11.9370   19.8757 O   0  0  0  0  0  0  0  0  0  0  0  0
    6.0167    8.4478   21.1089 C   0  0  0  0  0  0  0  0  0  0  0  0
   11.0002   10.8890   20.0262 C   0  0  0  0  0  0  0  0  0  0  0  0
    2.1721    7.7393   20.0315 O   0  0  0  0  0  0  0  0  0  0  0  0
    9.1107   10.3880   21.3769 N   0  0  0  0  0  0  0  0  0  0  0  0
    3.9102    9.2008   20.3124 C   0  0  0  0  0  0  0  0  0  0  0  0
   12.7292   10.9960   18.4597 C   0  0  0  0  0  0  0  0  0  0  0  0
    9.3798    6.6793   23.6625 C   0  0  0  0  0  0  0  0  0  0  0  0
   14.7425   10.0739   19.0802 O   0  0  0  0  0  0  0  0  0  0  0  0
    5.1894    9.4673   20.7118 C   0  0  0  0  0  0  0  0  0  0  0  0
    7.3773    8.8224   21.4870 C   0  0  0  0  0  0  0  0  0  0  0  0
    8.4391    6.6439   21.0235 C   0  0  0  0  0  0  0  0  0  0  0  0
    9.6494   11.1353   20.4167 C   0  0  0  0  0  0  0  0  0  0  0  0
    8.1431    7.6829   21.9046 C   0  0  0  0  0  0  0  0  0  0  0  0
    7.7796   10.1314   21.5115 N   0  0  0  0  0  0  0  0  0  0  0  0
    9.2768    5.6183   21.4437 C   0  0  0  0  0  0  0  0  0  0  0  0
    8.6315    7.7322   23.1768 C   0  0  0  0  0  0  0  0  0  0  0  0
   13.0537    9.9821   20.5781 C   0  0  0  0  0  0  0  0  0  0  0  0
   10.3850    4.6575   23.2386 O   0  0  0  0  0  0  0  0  0  0  0  0
    4.2069    6.8450   20.7994 C   0  0  0  0  0  0  0  0  0  0  0  0
    3.0726   10.1043   19.8522 O   0  0  0  0  0  0  0  0  0  0  0  0
    5.5057    7.1196   21.1155 C   0  0  0  0  0  0  0  0  0  0  0  0
    7.0367   11.0229   21.9948 O   0  0  0  0  0  0  0  0  0  0  0  0
  1  8  4  0
  1 12  4  0
  2  9  1  0
  2 11  4  0
  2 25  4  0
  3 12  4  0
  3 14  1  0
  3 23  4  0
  4 13  4  0
  4 21  4  0
  4 24  1  0
  5  8  4  0
  5 23  4  0
  6 18  2  0
  7 15  4  0
  7 16  1  0
  7 27  4  0
  8 18  1  0
 10 18  1  0
 10 20  1  0
 11 15  4  0
 11 26  1  0
 13 22  4  0
 16 19  1  0
 16 20  2  0
 17 19  4  0
 17 21  4  0
 19 22  4  0
 20 28  1  0
 25 27  4  0
M  END
$$$$

 Created by Python create_sdf_string function

 28 30  0  0  0  0  0  0  0  0999 V2000
   11.4592   11.2893   18.7941 C   0  0  0  0  0  0  0  0  0  0  0  0
    3.4202    7.9009   20.3866 C   0  0  0  0  0  0  0  0  0  0  0  0
   13.5280   10.3522   19.3586 C   0  0  0  0  0  0  0  0  0  0  0  0
    9.6923    5.6468   22.7891 C   0  0  0  0  0  0  0  0  0  0  0  0
   11.7756   10.2554   20.8841 N   0  0  0  0  0  0  0  0  0  0  0  0
    8.9876   11.9370   19.8757 O   0  0  0  0  0  0  0  0  0  0  0  0
    6.0167    8.4478   21.1089 C   0  0  0  0  0  0  0  0  0  0  0  0
   11.0002   10.8890   20.0262 C   0  0  0  0  0  0  0  0  0  0  0  0
    2.1721    7.7393   20.0315 O   0  0  0  0  0  0  0  0  0  0  0  0
    9.1107   10.3880   21.3769 N   0  0  0  0  0  0  0  0  0  0  0  0
    3.9102    9.2008   20.3124 C   0  0  0  0  0  0  0  0  0  0  0  0
   12.7292   10.9960   18.4597 C   0  0  0  0  0  0  0  0  0  0  0  0
    9.3798    6.6793   23.6625 C   0  0  0  0  0  0  0  0  0  0  0  0
   14.7425   10.0739   19.0802 O   0  0  0  0  0  0  0  0  0  0  0  0
    5.1894    9.4673   20.7118 C   0  0  0  0  0  0  0  0  0  0  0  0
    7.3773    8.8224   21.4870 C   0  0  0  0  0  0  0  0  0  0  0  0
    8.4391    6.6439   21.0235 C   0  0  0  0  0  0  0  0  0  0  0  0
    9.6494   11.1353   20.4167 C   0  0  0  0  0  0  0  0  0  0  0  0
    8.1431    7.6829   21.9046 C   0  0  0  0  0  0  0  0  0  0  0  0
    7.7796   10.1314   21.5115 N   0  0  0  0  0  0  0  0  0  0  0  0
    9.2768    5.6183   21.4437 C   0  0  0  0  0  0  0  0  0  0  0  0
    8.6315    7.7322   23.1768 C   0  0  0  0  0  0  0  0  0  0  0  0
   13.0537    9.9821   20.5781 C   0  0  0  0  0  0  0  0  0  0  0  0
   10.3850    4.6575   23.2386 O   0  0  0  0  0  0  0  0  0  0  0  0
    4.2069    6.8450   20.7994 C   0  0  0  0  0  0  0  0  0  0  0  0
    3.0726   10.1043   19.8522 O   0  0  0  0  0  0  0  0  0  0  0  0
    5.5057    7.1196   21.1155 C   0  0  0  0  0  0  0  0  0  0  0  0
    7.0367   11.0229   21.9948 O   0  0  0  0  0  0  0  0  0  0  0  0
  1  8  4  0
  1 12  4  0
  2  9  1  0
  2 11  4  0
  2 25  4  0
  3 12  4  0
  3 14  1  0
  3 23  4  0
  4 13  4  0
  4 21  4  0
  4 24  1  0
  5  8  4  0
  5 23  4  0
  6 18  2  0
  7 15  4  0
  7 16  1  0
  7 27  4  0
  8 18  1  0
 10 18  1  0
 10 20  1  0
 11 15  4  0
 11 26  1  0
 13 22  4  0
 16 19  1  0
 16 20  2  0
 17 19  4  0
 17 21  4  0
 19 22  4  0
 20 28  1  0
 25 27  4  0
M  END
$$$$

 Created by Python create_sdf_string function

 28 30  0  0  0  0  0  0  0  0999 V2000
   11.4592   11.2893   18.7941 C   0  0  0  0  0  0  0  0  0  0  0  0
    3.4202    7.9009   20.3866 C   0  0  0  0  0  0  0  0  0  0  0  0
   13.5280   10.3522   19.3586 C   0  0  0  0  0  0  0  0  0  0  0  0
    9.6923    5.6468   22.7891 C   0  0  0  0  0  0  0  0  0  0  0  0
   11.7756   10.2554   20.8841 N   0  0  0  0  0  0  0  0  0  0  0  0
    8.9876   11.9370   19.8757 O   0  0  0  0  0  0  0  0  0  0  0  0
    6.0167    8.4478   21.1089 C   0  0  0  0  0  0  0  0  0  0  0  0
   11.0002   10.8890   20.0262 C   0  0  0  0  0  0  0  0  0  0  0  0
    2.1721    7.7393   20.0315 O   0  0  0  0  0  0  0  0  0  0  0  0
    9.1107   10.3880   21.3769 N   0  0  0  0  0  0  0  0  0  0  0  0
    3.9102    9.2008   20.3124 C   0  0  0  0  0  0  0  0  0  0  0  0
   12.7292   10.9960   18.4597 C   0  0  0  0  0  0  0  0  0  0  0  0
    9.3798    6.6793   23.6625 C   0  0  0  0  0  0  0  0  0  0  0  0
   14.7425   10.0739   19.0802 O   0  0  0  0  0  0  0  0  0  0  0  0
    5.1894    9.4673   20.7118 C   0  0  0  0  0  0  0  0  0  0  0  0
    7.3773    8.8224   21.4870 C   0  0  0  0  0  0  0  0  0  0  0  0
    8.4391    6.6439   21.0235 C   0  0  0  0  0  0  0  0  0  0  0  0
    9.6494   11.1353   20.4167 C   0  0  0  0  0  0  0  0  0  0  0  0
    8.1431    7.6829   21.9046 C   0  0  0  0  0  0  0  0  0  0  0  0
    7.7796   10.1314   21.5115 N   0  0  0  0  0  0  0  0  0  0  0  0
    9.2768    5.6183   21.4437 C   0  0  0  0  0  0  0  0  0  0  0  0
    8.6315    7.7322   23.1768 C   0  0  0  0  0  0  0  0  0  0  0  0
   13.0537    9.9821   20.5781 C   0  0  0  0  0  0  0  0  0  0  0  0
   10.3850    4.6575   23.2386 O   0  0  0  0  0  0  0  0  0  0  0  0
    4.2069    6.8450   20.7994 C   0  0  0  0  0  0  0  0  0  0  0  0
    3.0726   10.1043   19.8522 O   0  0  0  0  0  0  0  0  0  0  0  0
    5.5057    7.1196   21.1155 C   0  0  0  0  0  0  0  0  0  0  0  0
    7.0367   11.0229   21.9948 O   0  0  0  0  0  0  0  0  0  0  0  0
  1  8  4  0
  1 12  4  0
  2  9  1  0
  2 11  4  0
  2 25  4  0
  3 12  4  0
  3 14  1  0
  3 23  4  0
  4 13  4  0
  4 21  4  0
  4 24  1  0
  5  8  4  0
  5 23  4  0
  6 18  2  0
  7 15  4  0
  7 16  1  0
  7 27  4  0
  8 18  1  0
 10 18  1  0
 10 20  1  0
 11 15  4  0
 11 26  1  0
 13 22  4  0
 16 19  1  0
 16 20  2  0
 17 19  4  0
 17 21  4  0
 19 22  4  0
 20 28  1  0
 25 27  4  0
M  END
$$$$

 Created by Python create_sdf_string function

 28 30  0  0  0  0  0  0  0  0999 V2000
   11.4592   11.2893   18.7941 C   0  0  0  0  0  0  0  0  0  0  0  0
    3.4202    7.9009   20.3866 C   0  0  0  0  0  0  0  0  0  0  0  0
   13.5280   10.3522   19.3586 C   0  0  0  0  0  0  0  0  0  0  0  0
    9.6923    5.6468   22.7891 C   0  0  0  0  0  0  0  0  0  0  0  0
   11.7756   10.2554   20.8841 N   0  0  0  0  0  0  0  0  0  0  0  0
    8.9876   11.9370   19.8757 O   0  0  0  0  0  0  0  0  0  0  0  0
    6.0167    8.4478   21.1089 C   0  0  0  0  0  0  0  0  0  0  0  0
   11.0002   10.8890   20.0262 C   0  0  0  0  0  0  0  0  0  0  0  0
    2.1721    7.7393   20.0315 O   0  0  0  0  0  0  0  0  0  0  0  0
    9.1107   10.3880   21.3769 N   0  0  0  0  0  0  0  0  0  0  0  0
    3.9102    9.2008   20.3124 C   0  0  0  0  0  0  0  0  0  0  0  0
   12.7292   10.9960   18.4597 C   0  0  0  0  0  0  0  0  0  0  0  0
    9.3798    6.6793   23.6625 C   0  0  0  0  0  0  0  0  0  0  0  0
   14.7425   10.0739   19.0802 O   0  0  0  0  0  0  0  0  0  0  0  0
    5.1894    9.4673   20.7118 C   0  0  0  0  0  0  0  0  0  0  0  0
    7.3773    8.8224   21.4870 C   0  0  0  0  0  0  0  0  0  0  0  0
    8.4391    6.6439   21.0235 C   0  0  0  0  0  0  0  0  0  0  0  0
    9.6494   11.1353   20.4167 C   0  0  0  0  0  0  0  0  0  0  0  0
    8.1431    7.6829   21.9046 C   0  0  0  0  0  0  0  0  0  0  0  0
    7.7796   10.1314   21.5115 N   0  0  0  0  0  0  0  0  0  0  0  0
    9.2768    5.6183   21.4437 C   0  0  0  0  0  0  0  0  0  0  0  0
    8.6315    7.7322   23.1768 C   0  0  0  0  0  0  0  0  0  0  0  0
   13.0537    9.9821   20.5781 C   0  0  0  0  0  0  0  0  0  0  0  0
   10.3850    4.6575   23.2386 O   0  0  0  0  0  0  0  0  0  0  0  0
    4.2069    6.8450   20.7994 C   0  0  0  0  0  0  0  0  0  0  0  0
    3.0726   10.1043   19.8522 O   0  0  0  0  0  0  0  0  0  0  0  0
    5.5057    7.1196   21.1155 C   0  0  0  0  0  0  0  0  0  0  0  0
    7.0367   11.0229   21.9948 O   0  0  0  0  0  0  0  0  0  0  0  0
  1  8  4  0
  1 12  4  0
  2  9  1  0
  2 11  4  0
  2 25  4  0
  3 12  4  0
  3 14  1  0
  3 23  4  0
  4 13  4  0
  4 21  4  0
  4 24  1  0
  5  8  4  0
  5 23  4  0
  6 18  2  0
  7 15  4  0
  7 16  1  0
  7 27  4  0
  8 18  1  0
 10 18  1  0
 10 20  1  0
 11 15  4  0
 11 26  1  0
 13 22  4  0
 16 19  1  0
 16 20  2  0
 17 19  4  0
 17 21  4  0
 19 22  4  0
 20 28  1  0
 25 27  4  0
M  END
$$$$

 Created by Python create_sdf_string function

 28 30  0  0  0  0  0  0  0  0999 V2000
   11.4592   11.2893   18.7941 C   0  0  0  0  0  0  0  0  0  0  0  0
    3.4202    7.9009   20.3866 C   0  0  0  0  0  0  0  0  0  0  0  0
   13.5280   10.3522   19.3586 C   0  0  0  0  0  0  0  0  0  0  0  0
    9.6923    5.6468   22.7891 C   0  0  0  0  0  0  0  0  0  0  0  0
   11.7756   10.2554   20.8841 N   0  0  0  0  0  0  0  0  0  0  0  0
    8.9876   11.9370   19.8757 O   0  0  0  0  0  0  0  0  0  0  0  0
    6.0167    8.4478   21.1089 C   0  0  0  0  0  0  0  0  0  0  0  0
   11.0002   10.8890   20.0262 C   0  0  0  0  0  0  0  0  0  0  0  0
    2.1721    7.7393   20.0315 O   0  0  0  0  0  0  0  0  0  0  0  0
    9.1107   10.3880   21.3769 N   0  0  0  0  0  0  0  0  0  0  0  0
    3.9102    9.2008   20.3124 C   0  0  0  0  0  0  0  0  0  0  0  0
   12.7292   10.9960   18.4597 C   0  0  0  0  0  0  0  0  0  0  0  0
    9.3798    6.6793   23.6625 C   0  0  0  0  0  0  0  0  0  0  0  0
   14.7425   10.0739   19.0802 O   0  0  0  0  0  0  0  0  0  0  0  0
    5.1894    9.4673   20.7118 C   0  0  0  0  0  0  0  0  0  0  0  0
    7.3773    8.8224   21.4870 C   0  0  0  0  0  0  0  0  0  0  0  0
    8.4391    6.6439   21.0235 C   0  0  0  0  0  0  0  0  0  0  0  0
    9.6494   11.1353   20.4167 C   0  0  0  0  0  0  0  0  0  0  0  0
    8.1431    7.6829   21.9046 C   0  0  0  0  0  0  0  0  0  0  0  0
    7.7796   10.1314   21.5115 N   0  0  0  0  0  0  0  0  0  0  0  0
    9.2768    5.6183   21.4437 C   0  0  0  0  0  0  0  0  0  0  0  0
    8.6315    7.7322   23.1768 C   0  0  0  0  0  0  0  0  0  0  0  0
   13.0537    9.9821   20.5781 C   0  0  0  0  0  0  0  0  0  0  0  0
   10.3850    4.6575   23.2386 O   0  0  0  0  0  0  0  0  0  0  0  0
    4.2069    6.8450   20.7994 C   0  0  0  0  0  0  0  0  0  0  0  0
    3.0726   10.1043   19.8522 O   0  0  0  0  0  0  0  0  0  0  0  0
    5.5057    7.1196   21.1155 C   0  0  0  0  0  0  0  0  0  0  0  0
    7.0367   11.0229   21.9948 O   0  0  0  0  0  0  0  0  0  0  0  0
  1  8  4  0
  1 12  4  0
  2  9  1  0
  2 11  4  0
  2 25  4  0
  3 12  4  0
  3 14  1  0
  3 23  4  0
  4 13  4  0
  4 21  4  0
  4 24  1  0
  5  8  4  0
  5 23  4  0
  6 18  2  0
  7 15  4  0
  7 16  1  0
  7 27  4  0
  8 18  1  0
 10 18  1  0
 10 20  1  0
 11 15  4  0
 11 26  1  0
 13 22  4  0
 16 19  1  0
 16 20  2  0
 17 19  4  0
 17 21  4  0
 19 22  4  0
 20 28  1  0
 25 27  4  0
M  END
$$$$

 Created by Python create_sdf_string function

 28 30  0  0  0  0  0  0  0  0999 V2000
   11.4592   11.2893   18.7941 C   0  0  0  0  0  0  0  0  0  0  0  0
    3.4202    7.9009   20.3866 C   0  0  0  0  0  0  0  0  0  0  0  0
   13.5280   10.3522   19.3586 C   0  0  0  0  0  0  0  0  0  0  0  0
    9.6923    5.6468   22.7891 C   0  0  0  0  0  0  0  0  0  0  0  0
   11.7756   10.2554   20.8841 N   0  0  0  0  0  0  0  0  0  0  0  0
    8.9876   11.9370   19.8757 O   0  0  0  0  0  0  0  0  0  0  0  0
    6.0167    8.4478   21.1089 C   0  0  0  0  0  0  0  0  0  0  0  0
   11.0002   10.8890   20.0262 C   0  0  0  0  0  0  0  0  0  0  0  0
    2.1721    7.7393   20.0315 O   0  0  0  0  0  0  0  0  0  0  0  0
    9.1107   10.3880   21.3769 N   0  0  0  0  0  0  0  0  0  0  0  0
    3.9102    9.2008   20.3124 C   0  0  0  0  0  0  0  0  0  0  0  0
   12.7292   10.9960   18.4597 C   0  0  0  0  0  0  0  0  0  0  0  0
    9.3798    6.6793   23.6625 C   0  0  0  0  0  0  0  0  0  0  0  0
   14.7425   10.0739   19.0802 O   0  0  0  0  0  0  0  0  0  0  0  0
    5.1894    9.4673   20.7118 C   0  0  0  0  0  0  0  0  0  0  0  0
    7.3773    8.8224   21.4870 C   0  0  0  0  0  0  0  0  0  0  0  0
    8.4391    6.6439   21.0235 C   0  0  0  0  0  0  0  0  0  0  0  0
    9.6494   11.1353   20.4167 C   0  0  0  0  0  0  0  0  0  0  0  0
    8.1431    7.6829   21.9046 C   0  0  0  0  0  0  0  0  0  0  0  0
    7.7796   10.1314   21.5115 N   0  0  0  0  0  0  0  0  0  0  0  0
    9.2768    5.6183   21.4437 C   0  0  0  0  0  0  0  0  0  0  0  0
    8.6315    7.7322   23.1768 C   0  0  0  0  0  0  0  0  0  0  0  0
   13.0537    9.9821   20.5781 C   0  0  0  0  0  0  0  0  0  0  0  0
   10.3850    4.6575   23.2386 O   0  0  0  0  0  0  0  0  0  0  0  0
    4.2069    6.8450   20.7994 C   0  0  0  0  0  0  0  0  0  0  0  0
    3.0726   10.1043   19.8522 O   0  0  0  0  0  0  0  0  0  0  0  0
    5.5057    7.1196   21.1155 C   0  0  0  0  0  0  0  0  0  0  0  0
    7.0367   11.0229   21.9948 O   0  0  0  0  0  0  0  0  0  0  0  0
  1  8  4  0
  1 12  4  0
  2  9  1  0
  2 11  4  0
  2 25  4  0
  3 12  4  0
  3 14  1  0
  3 23  4  0
  4 13  4  0
  4 21  4  0
  4 24  1  0
  5  8  4  0
  5 23  4  0
  6 18  2  0
  7 15  4  0
  7 16  1  0
  7 27  4  0
  8 18  1  0
 10 18  1  0
 10 20  1  0
 11 15  4  0
 11 26  1  0
 13 22  4  0
 16 19  1  0
 16 20  2  0
 17 19  4  0
 17 21  4  0
 19 22  4  0
 20 28  1  0
 25 27  4  0
M  END
$$$$

 Created by Python create_sdf_string function

 28 30  0  0  0  0  0  0  0  0999 V2000
   11.4592   11.2893   18.7941 C   0  0  0  0  0  0  0  0  0  0  0  0
    3.4202    7.9009   20.3866 C   0  0  0  0  0  0  0  0  0  0  0  0
   13.5280   10.3522   19.3586 C   0  0  0  0  0  0  0  0  0  0  0  0
    9.6923    5.6468   22.7891 C   0  0  0  0  0  0  0  0  0  0  0  0
   11.7756   10.2554   20.8841 N   0  0  0  0  0  0  0  0  0  0  0  0
    8.9876   11.9370   19.8757 O   0  0  0  0  0  0  0  0  0  0  0  0
    6.0167    8.4478   21.1089 C   0  0  0  0  0  0  0  0  0  0  0  0
   11.0002   10.8890   20.0262 C   0  0  0  0  0  0  0  0  0  0  0  0
    2.1721    7.7393   20.0315 O   0  0  0  0  0  0  0  0  0  0  0  0
    9.1107   10.3880   21.3769 N   0  0  0  0  0  0  0  0  0  0  0  0
    3.9102    9.2008   20.3124 C   0  0  0  0  0  0  0  0  0  0  0  0
   12.7292   10.9960   18.4597 C   0  0  0  0  0  0  0  0  0  0  0  0
    9.3798    6.6793   23.6625 C   0  0  0  0  0  0  0  0  0  0  0  0
   14.7425   10.0739   19.0802 O   0  0  0  0  0  0  0  0  0  0  0  0
    5.1894    9.4673   20.7118 C   0  0  0  0  0  0  0  0  0  0  0  0
    7.3773    8.8224   21.4870 C   0  0  0  0  0  0  0  0  0  0  0  0
    8.4391    6.6439   21.0235 C   0  0  0  0  0  0  0  0  0  0  0  0
    9.6494   11.1353   20.4167 C   0  0  0  0  0  0  0  0  0  0  0  0
    8.1431    7.6829   21.9046 C   0  0  0  0  0  0  0  0  0  0  0  0
    7.7796   10.1314   21.5115 N   0  0  0  0  0  0  0  0  0  0  0  0
    9.2768    5.6183   21.4437 C   0  0  0  0  0  0  0  0  0  0  0  0
    8.6315    7.7322   23.1768 C   0  0  0  0  0  0  0  0  0  0  0  0
   13.0537    9.9821   20.5781 C   0  0  0  0  0  0  0  0  0  0  0  0
   10.3850    4.6575   23.2386 O   0  0  0  0  0  0  0  0  0  0  0  0
    4.2069    6.8450   20.7994 C   0  0  0  0  0  0  0  0  0  0  0  0
    3.0726   10.1043   19.8522 O   0  0  0  0  0  0  0  0  0  0  0  0
    5.5057    7.1196   21.1155 C   0  0  0  0  0  0  0  0  0  0  0  0
    7.0367   11.0229   21.9948 O   0  0  0  0  0  0  0  0  0  0  0  0
  1  8  4  0
  1 12  4  0
  2  9  1  0
  2 11  4  0
  2 25  4  0
  3 12  4  0
  3 14  1  0
  3 23  4  0
  4 13  4  0
  4 21  4  0
  4 24  1  0
  5  8  4  0
  5 23  4  0
  6 18  2  0
  7 15  4  0
  7 16  1  0
  7 27  4  0
  8 18  1  0
 10 18  1  0
 10 20  1  0
 11 15  4  0
 11 26  1  0
 13 22  4  0
 16 19  1  0
 16 20  2  0
 17 19  4  0
 17 21  4  0
 19 22  4  0
 20 28  1  0
 25 27  4  0
M  END
$$$$

 Created by Python create_sdf_string function

 28 30  0  0  0  0  0  0  0  0999 V2000
   11.4592   11.2893   18.7941 C   0  0  0  0  0  0  0  0  0  0  0  0
    3.4202    7.9009   20.3866 C   0  0  0  0  0  0  0  0  0  0  0  0
   13.5280   10.3522   19.3586 C   0  0  0  0  0  0  0  0  0  0  0  0
    9.6923    5.6468   22.7891 C   0  0  0  0  0  0  0  0  0  0  0  0
   11.7756   10.2554   20.8841 N   0  0  0  0  0  0  0  0  0  0  0  0
    8.9876   11.9370   19.8757 O   0  0  0  0  0  0  0  0  0  0  0  0
    6.0167    8.4478   21.1089 C   0  0  0  0  0  0  0  0  0  0  0  0
   11.0002   10.8890   20.0262 C   0  0  0  0  0  0  0  0  0  0  0  0
    2.1721    7.7393   20.0315 O   0  0  0  0  0  0  0  0  0  0  0  0
    9.1107   10.3880   21.3769 N   0  0  0  0  0  0  0  0  0  0  0  0
    3.9102    9.2008   20.3124 C   0  0  0  0  0  0  0  0  0  0  0  0
   12.7292   10.9960   18.4597 C   0  0  0  0  0  0  0  0  0  0  0  0
    9.3798    6.6793   23.6625 C   0  0  0  0  0  0  0  0  0  0  0  0
   14.7425   10.0739   19.0802 O   0  0  0  0  0  0  0  0  0  0  0  0
    5.1894    9.4673   20.7118 C   0  0  0  0  0  0  0  0  0  0  0  0
    7.3773    8.8224   21.4870 C   0  0  0  0  0  0  0  0  0  0  0  0
    8.4391    6.6439   21.0235 C   0  0  0  0  0  0  0  0  0  0  0  0
    9.6494   11.1353   20.4167 C   0  0  0  0  0  0  0  0  0  0  0  0
    8.1431    7.6829   21.9046 C   0  0  0  0  0  0  0  0  0  0  0  0
    7.7796   10.1314   21.5115 N   0  0  0  0  0  0  0  0  0  0  0  0
    9.2768    5.6183   21.4437 C   0  0  0  0  0  0  0  0  0  0  0  0
    8.6315    7.7322   23.1768 C   0  0  0  0  0  0  0  0  0  0  0  0
   13.0537    9.9821   20.5781 C   0  0  0  0  0  0  0  0  0  0  0  0
   10.3850    4.6575   23.2386 O   0  0  0  0  0  0  0  0  0  0  0  0
    4.2069    6.8450   20.7994 C   0  0  0  0  0  0  0  0  0  0  0  0
    3.0726   10.1043   19.8522 O   0  0  0  0  0  0  0  0  0  0  0  0
    5.5057    7.1196   21.1155 C   0  0  0  0  0  0  0  0  0  0  0  0
    7.0367   11.0229   21.9948 O   0  0  0  0  0  0  0  0  0  0  0  0
  1  8  4  0
  1 12  4  0
  2  9  1  0
  2 11  4  0
  2 25  4  0
  3 12  4  0
  3 14  1  0
  3 23  4  0
  4 13  4  0
  4 21  4  0
  4 24  1  0
  5  8  4  0
  5 23  4  0
  6 18  2  0
  7 15  4  0
  7 16  1  0
  7 27  4  0
  8 18  1  0
 10 18  1  0
 10 20  1  0
 11 15  4  0
 11 26  1  0
 13 22  4  0
 16 19  1  0
 16 20  2  0
 17 19  4  0
 17 21  4  0
 19 22  4  0
 20 28  1  0
 25 27  4  0
M  END
$$$$

 Created by Python create_sdf_string function

 28 30  0  0  0  0  0  0  0  0999 V2000
   11.4592   11.2893   18.7941 C   0  0  0  0  0  0  0  0  0  0  0  0
    3.4202    7.9009   20.3866 C   0  0  0  0  0  0  0  0  0  0  0  0
   13.5280   10.3522   19.3586 C   0  0  0  0  0  0  0  0  0  0  0  0
    9.6923    5.6468   22.7891 C   0  0  0  0  0  0  0  0  0  0  0  0
   11.7756   10.2554   20.8841 N   0  0  0  0  0  0  0  0  0  0  0  0
    8.9876   11.9370   19.8757 O   0  0  0  0  0  0  0  0  0  0  0  0
    6.0167    8.4478   21.1089 C   0  0  0  0  0  0  0  0  0  0  0  0
   11.0002   10.8890   20.0262 C   0  0  0  0  0  0  0  0  0  0  0  0
    2.1721    7.7393   20.0315 O   0  0  0  0  0  0  0  0  0  0  0  0
    9.1107   10.3880   21.3769 N   0  0  0  0  0  0  0  0  0  0  0  0
    3.9102    9.2008   20.3124 C   0  0  0  0  0  0  0  0  0  0  0  0
   12.7292   10.9960   18.4597 C   0  0  0  0  0  0  0  0  0  0  0  0
    9.3798    6.6793   23.6625 C   0  0  0  0  0  0  0  0  0  0  0  0
   14.7425   10.0739   19.0802 O   0  0  0  0  0  0  0  0  0  0  0  0
    5.1894    9.4673   20.7118 C   0  0  0  0  0  0  0  0  0  0  0  0
    7.3773    8.8224   21.4870 C   0  0  0  0  0  0  0  0  0  0  0  0
    8.4391    6.6439   21.0235 C   0  0  0  0  0  0  0  0  0  0  0  0
    9.6494   11.1353   20.4167 C   0  0  0  0  0  0  0  0  0  0  0  0
    8.1431    7.6829   21.9046 C   0  0  0  0  0  0  0  0  0  0  0  0
    7.7796   10.1314   21.5115 N   0  0  0  0  0  0  0  0  0  0  0  0
    9.2768    5.6183   21.4437 C   0  0  0  0  0  0  0  0  0  0  0  0
    8.6315    7.7322   23.1768 C   0  0  0  0  0  0  0  0  0  0  0  0
   13.0537    9.9821   20.5781 C   0  0  0  0  0  0  0  0  0  0  0  0
   10.3850    4.6575   23.2386 O   0  0  0  0  0  0  0  0  0  0  0  0
    4.2069    6.8450   20.7994 C   0  0  0  0  0  0  0  0  0  0  0  0
    3.0726   10.1043   19.8522 O   0  0  0  0  0  0  0  0  0  0  0  0
    5.5057    7.1196   21.1155 C   0  0  0  0  0  0  0  0  0  0  0  0
    7.0367   11.0229   21.9948 O   0  0  0  0  0  0  0  0  0  0  0  0
  1  8  4  0
  1 12  4  0
  2  9  1  0
  2 11  4  0
  2 25  4  0
  3 12  4  0
  3 14  1  0
  3 23  4  0
  4 13  4  0
  4 21  4  0
  4 24  1  0
  5  8  4  0
  5 23  4  0
  6 18  2  0
  7 15  4  0
  7 16  1  0
  7 27  4  0
  8 18  1  0
 10 18  1  0
 10 20  1  0
 11 15  4  0
 11 26  1  0
 13 22  4  0
 16 19  1  0
 16 20  2  0
 17 19  4  0
 17 21  4  0
 19 22  4  0
 20 28  1  0
 25 27  4  0
M  END
$$$$

 Created by Python create_sdf_string function

 28 30  0  0  0  0  0  0  0  0999 V2000
   11.4592   11.2893   18.7941 C   0  0  0  0  0  0  0  0  0  0  0  0
    3.4202    7.9009   20.3866 C   0  0  0  0  0  0  0  0  0  0  0  0
   13.5280   10.3522   19.3586 C   0  0  0  0  0  0  0  0  0  0  0  0
    9.6923    5.6468   22.7891 C   0  0  0  0  0  0  0  0  0  0  0  0
   11.7756   10.2554   20.8841 N   0  0  0  0  0  0  0  0  0  0  0  0
    8.9876   11.9370   19.8757 O   0  0  0  0  0  0  0  0  0  0  0  0
    6.0167    8.4478   21.1089 C   0  0  0  0  0  0  0  0  0  0  0  0
   11.0002   10.8890   20.0262 C   0  0  0  0  0  0  0  0  0  0  0  0
    2.1721    7.7393   20.0315 O   0  0  0  0  0  0  0  0  0  0  0  0
    9.1107   10.3880   21.3769 N   0  0  0  0  0  0  0  0  0  0  0  0
    3.9102    9.2008   20.3124 C   0  0  0  0  0  0  0  0  0  0  0  0
   12.7292   10.9960   18.4597 C   0  0  0  0  0  0  0  0  0  0  0  0
    9.3798    6.6793   23.6625 C   0  0  0  0  0  0  0  0  0  0  0  0
   14.7425   10.0739   19.0802 O   0  0  0  0  0  0  0  0  0  0  0  0
    5.1894    9.4673   20.7118 C   0  0  0  0  0  0  0  0  0  0  0  0
    7.3773    8.8224   21.4870 C   0  0  0  0  0  0  0  0  0  0  0  0
    8.4391    6.6439   21.0235 C   0  0  0  0  0  0  0  0  0  0  0  0
    9.6494   11.1353   20.4167 C   0  0  0  0  0  0  0  0  0  0  0  0
    8.1431    7.6829   21.9046 C   0  0  0  0  0  0  0  0  0  0  0  0
    7.7796   10.1314   21.5115 N   0  0  0  0  0  0  0  0  0  0  0  0
    9.2768    5.6183   21.4437 C   0  0  0  0  0  0  0  0  0  0  0  0
    8.6315    7.7322   23.1768 C   0  0  0  0  0  0  0  0  0  0  0  0
   13.0537    9.9821   20.5781 C   0  0  0  0  0  0  0  0  0  0  0  0
   10.3850    4.6575   23.2386 O   0  0  0  0  0  0  0  0  0  0  0  0
    4.2069    6.8450   20.7994 C   0  0  0  0  0  0  0  0  0  0  0  0
    3.0726   10.1043   19.8522 O   0  0  0  0  0  0  0  0  0  0  0  0
    5.5057    7.1196   21.1155 C   0  0  0  0  0  0  0  0  0  0  0  0
    7.0367   11.0229   21.9948 O   0  0  0  0  0  0  0  0  0  0  0  0
  1  8  4  0
  1 12  4  0
  2  9  1  0
  2 11  4  0
  2 25  4  0
  3 12  4  0
  3 14  1  0
  3 23  4  0
  4 13  4  0
  4 21  4  0
  4 24  1  0
  5  8  4  0
  5 23  4  0
  6 18  2  0
  7 15  4  0
  7 16  1  0
  7 27  4  0
  8 18  1  0
 10 18  1  0
 10 20  1  0
 11 15  4  0
 11 26  1  0
 13 22  4  0
 16 19  1  0
 16 20  2  0
 17 19  4  0
 17 21  4  0
 19 22  4  0
 20 28  1  0
 25 27  4  0
M  END
$$$$

 Created by Python create_sdf_string function

 28 30  0  0  0  0  0  0  0  0999 V2000
   11.4592   11.2893   18.7941 C   0  0  0  0  0  0  0  0  0  0  0  0
    3.4202    7.9009   20.3866 C   0  0  0  0  0  0  0  0  0  0  0  0
   13.5280   10.3522   19.3586 C   0  0  0  0  0  0  0  0  0  0  0  0
    9.6923    5.6468   22.7891 C   0  0  0  0  0  0  0  0  0  0  0  0
   11.7756   10.2554   20.8841 N   0  0  0  0  0  0  0  0  0  0  0  0
    8.9876   11.9370   19.8757 O   0  0  0  0  0  0  0  0  0  0  0  0
    6.0167    8.4478   21.1089 C   0  0  0  0  0  0  0  0  0  0  0  0
   11.0002   10.8890   20.0262 C   0  0  0  0  0  0  0  0  0  0  0  0
    2.1721    7.7393   20.0315 O   0  0  0  0  0  0  0  0  0  0  0  0
    9.1107   10.3880   21.3769 N   0  0  0  0  0  0  0  0  0  0  0  0
    3.9102    9.2008   20.3124 C   0  0  0  0  0  0  0  0  0  0  0  0
   12.7292   10.9960   18.4597 C   0  0  0  0  0  0  0  0  0  0  0  0
    9.3798    6.6793   23.6625 C   0  0  0  0  0  0  0  0  0  0  0  0
   14.7425   10.0739   19.0802 O   0  0  0  0  0  0  0  0  0  0  0  0
    5.1894    9.4673   20.7118 C   0  0  0  0  0  0  0  0  0  0  0  0
    7.3773    8.8224   21.4870 C   0  0  0  0  0  0  0  0  0  0  0  0
    8.4391    6.6439   21.0235 C   0  0  0  0  0  0  0  0  0  0  0  0
    9.6494   11.1353   20.4167 C   0  0  0  0  0  0  0  0  0  0  0  0
    8.1431    7.6829   21.9046 C   0  0  0  0  0  0  0  0  0  0  0  0
    7.7796   10.1314   21.5115 N   0  0  0  0  0  0  0  0  0  0  0  0
    9.2768    5.6183   21.4437 C   0  0  0  0  0  0  0  0  0  0  0  0
    8.6315    7.7322   23.1768 C   0  0  0  0  0  0  0  0  0  0  0  0
   13.0537    9.9821   20.5781 C   0  0  0  0  0  0  0  0  0  0  0  0
   10.3850    4.6575   23.2386 O   0  0  0  0  0  0  0  0  0  0  0  0
    4.2069    6.8450   20.7994 C   0  0  0  0  0  0  0  0  0  0  0  0
    3.0726   10.1043   19.8522 O   0  0  0  0  0  0  0  0  0  0  0  0
    5.5057    7.1196   21.1155 C   0  0  0  0  0  0  0  0  0  0  0  0
    7.0367   11.0229   21.9948 O   0  0  0  0  0  0  0  0  0  0  0  0
  1  8  4  0
  1 12  4  0
  2  9  1  0
  2 11  4  0
  2 25  4  0
  3 12  4  0
  3 14  1  0
  3 23  4  0
  4 13  4  0
  4 21  4  0
  4 24  1  0
  5  8  4  0
  5 23  4  0
  6 18  2  0
  7 15  4  0
  7 16  1  0
  7 27  4  0
  8 18  1  0
 10 18  1  0
 10 20  1  0
 11 15  4  0
 11 26  1  0
 13 22  4  0
 16 19  1  0
 16 20  2  0
 17 19  4  0
 17 21  4  0
 19 22  4  0
 20 28  1  0
 25 27  4  0
M  END
$$$$

 Created by Python create_sdf_string function

 28 30  0  0  0  0  0  0  0  0999 V2000
   11.4592   11.2893   18.7941 C   0  0  0  0  0  0  0  0  0  0  0  0
    3.4202    7.9009   20.3866 C   0  0  0  0  0  0  0  0  0  0  0  0
   13.5280   10.3522   19.3586 C   0  0  0  0  0  0  0  0  0  0  0  0
    9.6923    5.6468   22.7891 C   0  0  0  0  0  0  0  0  0  0  0  0
   11.7756   10.2554   20.8841 N   0  0  0  0  0  0  0  0  0  0  0  0
    8.9876   11.9370   19.8757 O   0  0  0  0  0  0  0  0  0  0  0  0
    6.0167    8.4478   21.1089 C   0  0  0  0  0  0  0  0  0  0  0  0
   11.0002   10.8890   20.0262 C   0  0  0  0  0  0  0  0  0  0  0  0
    2.1721    7.7393   20.0315 O   0  0  0  0  0  0  0  0  0  0  0  0
    9.1107   10.3880   21.3769 N   0  0  0  0  0  0  0  0  0  0  0  0
    3.9102    9.2008   20.3124 C   0  0  0  0  0  0  0  0  0  0  0  0
   12.7292   10.9960   18.4597 C   0  0  0  0  0  0  0  0  0  0  0  0
    9.3798    6.6793   23.6625 C   0  0  0  0  0  0  0  0  0  0  0  0
   14.7425   10.0739   19.0802 O   0  0  0  0  0  0  0  0  0  0  0  0
    5.1894    9.4673   20.7118 C   0  0  0  0  0  0  0  0  0  0  0  0
    7.3773    8.8224   21.4870 C   0  0  0  0  0  0  0  0  0  0  0  0
    8.4391    6.6439   21.0235 C   0  0  0  0  0  0  0  0  0  0  0  0
    9.6494   11.1353   20.4167 C   0  0  0  0  0  0  0  0  0  0  0  0
    8.1431    7.6829   21.9046 C   0  0  0  0  0  0  0  0  0  0  0  0
    7.7796   10.1314   21.5115 N   0  0  0  0  0  0  0  0  0  0  0  0
    9.2768    5.6183   21.4437 C   0  0  0  0  0  0  0  0  0  0  0  0
    8.6315    7.7322   23.1768 C   0  0  0  0  0  0  0  0  0  0  0  0
   13.0537    9.9821   20.5781 C   0  0  0  0  0  0  0  0  0  0  0  0
   10.3850    4.6575   23.2386 O   0  0  0  0  0  0  0  0  0  0  0  0
    4.2069    6.8450   20.7994 C   0  0  0  0  0  0  0  0  0  0  0  0
    3.0726   10.1043   19.8522 O   0  0  0  0  0  0  0  0  0  0  0  0
    5.5057    7.1196   21.1155 C   0  0  0  0  0  0  0  0  0  0  0  0
    7.0367   11.0229   21.9948 O   0  0  0  0  0  0  0  0  0  0  0  0
  1  8  4  0
  1 12  4  0
  2  9  1  0
  2 11  4  0
  2 25  4  0
  3 12  4  0
  3 14  1  0
  3 23  4  0
  4 13  4  0
  4 21  4  0
  4 24  1  0
  5  8  4  0
  5 23  4  0
  6 18  2  0
  7 15  4  0
  7 16  1  0
  7 27  4  0
  8 18  1  0
 10 18  1  0
 10 20  1  0
 11 15  4  0
 11 26  1  0
 13 22  4  0
 16 19  1  0
 16 20  2  0
 17 19  4  0
 17 21  4  0
 19 22  4  0
 20 28  1  0
 25 27  4  0
M  END
$$$$

 Created by Python create_sdf_string function

 28 30  0  0  0  0  0  0  0  0999 V2000
   11.4592   11.2893   18.7941 C   0  0  0  0  0  0  0  0  0  0  0  0
    3.4202    7.9009   20.3866 C   0  0  0  0  0  0  0  0  0  0  0  0
   13.5280   10.3522   19.3586 C   0  0  0  0  0  0  0  0  0  0  0  0
    9.6923    5.6468   22.7891 C   0  0  0  0  0  0  0  0  0  0  0  0
   11.7756   10.2554   20.8841 N   0  0  0  0  0  0  0  0  0  0  0  0
    8.9876   11.9370   19.8757 O   0  0  0  0  0  0  0  0  0  0  0  0
    6.0167    8.4478   21.1089 C   0  0  0  0  0  0  0  0  0  0  0  0
   11.0002   10.8890   20.0262 C   0  0  0  0  0  0  0  0  0  0  0  0
    2.1721    7.7393   20.0315 O   0  0  0  0  0  0  0  0  0  0  0  0
    9.1107   10.3880   21.3769 N   0  0  0  0  0  0  0  0  0  0  0  0
    3.9102    9.2008   20.3124 C   0  0  0  0  0  0  0  0  0  0  0  0
   12.7292   10.9960   18.4597 C   0  0  0  0  0  0  0  0  0  0  0  0
    9.3798    6.6793   23.6625 C   0  0  0  0  0  0  0  0  0  0  0  0
   14.7425   10.0739   19.0802 O   0  0  0  0  0  0  0  0  0  0  0  0
    5.1894    9.4673   20.7118 C   0  0  0  0  0  0  0  0  0  0  0  0
    7.3773    8.8224   21.4870 C   0  0  0  0  0  0  0  0  0  0  0  0
    8.4391    6.6439   21.0235 C   0  0  0  0  0  0  0  0  0  0  0  0
    9.6494   11.1353   20.4167 C   0  0  0  0  0  0  0  0  0  0  0  0
    8.1431    7.6829   21.9046 C   0  0  0  0  0  0  0  0  0  0  0  0
    7.7796   10.1314   21.5115 N   0  0  0  0  0  0  0  0  0  0  0  0
    9.2768    5.6183   21.4437 C   0  0  0  0  0  0  0  0  0  0  0  0
    8.6315    7.7322   23.1768 C   0  0  0  0  0  0  0  0  0  0  0  0
   13.0537    9.9821   20.5781 C   0  0  0  0  0  0  0  0  0  0  0  0
   10.3850    4.6575   23.2386 O   0  0  0  0  0  0  0  0  0  0  0  0
    4.2069    6.8450   20.7994 C   0  0  0  0  0  0  0  0  0  0  0  0
    3.0726   10.1043   19.8522 O   0  0  0  0  0  0  0  0  0  0  0  0
    5.5057    7.1196   21.1155 C   0  0  0  0  0  0  0  0  0  0  0  0
    7.0367   11.0229   21.9948 O   0  0  0  0  0  0  0  0  0  0  0  0
  1  8  4  0
  1 12  4  0
  2  9  1  0
  2 11  4  0
  2 25  4  0
  3 12  4  0
  3 14  1  0
  3 23  4  0
  4 13  4  0
  4 21  4  0
  4 24  1  0
  5  8  4  0
  5 23  4  0
  6 18  2  0
  7 15  4  0
  7 16  1  0
  7 27  4  0
  8 18  1  0
 10 18  1  0
 10 20  1  0
 11 15  4  0
 11 26  1  0
 13 22  4  0
 16 19  1  0
 16 20  2  0
 17 19  4  0
 17 21  4  0
 19 22  4  0
 20 28  1  0
 25 27  4  0
M  END
$$$$

 Created by Python create_sdf_string function

 28 30  0  0  0  0  0  0  0  0999 V2000
   11.4592   11.2893   18.7941 C   0  0  0  0  0  0  0  0  0  0  0  0
    3.4202    7.9009   20.3866 C   0  0  0  0  0  0  0  0  0  0  0  0
   13.5280   10.3522   19.3586 C   0  0  0  0  0  0  0  0  0  0  0  0
    9.6923    5.6468   22.7891 C   0  0  0  0  0  0  0  0  0  0  0  0
   11.7756   10.2554   20.8841 N   0  0  0  0  0  0  0  0  0  0  0  0
    8.9876   11.9370   19.8757 O   0  0  0  0  0  0  0  0  0  0  0  0
    6.0167    8.4478   21.1089 C   0  0  0  0  0  0  0  0  0  0  0  0
   11.0002   10.8890   20.0262 C   0  0  0  0  0  0  0  0  0  0  0  0
    2.1721    7.7393   20.0315 O   0  0  0  0  0  0  0  0  0  0  0  0
    9.1107   10.3880   21.3769 N   0  0  0  0  0  0  0  0  0  0  0  0
    3.9102    9.2008   20.3124 C   0  0  0  0  0  0  0  0  0  0  0  0
   12.7292   10.9960   18.4597 C   0  0  0  0  0  0  0  0  0  0  0  0
    9.3798    6.6793   23.6625 C   0  0  0  0  0  0  0  0  0  0  0  0
   14.7425   10.0739   19.0802 O   0  0  0  0  0  0  0  0  0  0  0  0
    5.1894    9.4673   20.7118 C   0  0  0  0  0  0  0  0  0  0  0  0
    7.3773    8.8224   21.4870 C   0  0  0  0  0  0  0  0  0  0  0  0
    8.4391    6.6439   21.0235 C   0  0  0  0  0  0  0  0  0  0  0  0
    9.6494   11.1353   20.4167 C   0  0  0  0  0  0  0  0  0  0  0  0
    8.1431    7.6829   21.9046 C   0  0  0  0  0  0  0  0  0  0  0  0
    7.7796   10.1314   21.5115 N   0  0  0  0  0  0  0  0  0  0  0  0
    9.2768    5.6183   21.4437 C   0  0  0  0  0  0  0  0  0  0  0  0
    8.6315    7.7322   23.1768 C   0  0  0  0  0  0  0  0  0  0  0  0
   13.0537    9.9821   20.5781 C   0  0  0  0  0  0  0  0  0  0  0  0
   10.3850    4.6575   23.2386 O   0  0  0  0  0  0  0  0  0  0  0  0
    4.2069    6.8450   20.7994 C   0  0  0  0  0  0  0  0  0  0  0  0
    3.0726   10.1043   19.8522 O   0  0  0  0  0  0  0  0  0  0  0  0
    5.5057    7.1196   21.1155 C   0  0  0  0  0  0  0  0  0  0  0  0
    7.0367   11.0229   21.9948 O   0  0  0  0  0  0  0  0  0  0  0  0
  1  8  4  0
  1 12  4  0
  2  9  1  0
  2 11  4  0
  2 25  4  0
  3 12  4  0
  3 14  1  0
  3 23  4  0
  4 13  4  0
  4 21  4  0
  4 24  1  0
  5  8  4  0
  5 23  4  0
  6 18  2  0
  7 15  4  0
  7 16  1  0
  7 27  4  0
  8 18  1  0
 10 18  1  0
 10 20  1  0
 11 15  4  0
 11 26  1  0
 13 22  4  0
 16 19  1  0
 16 20  2  0
 17 19  4  0
 17 21  4  0
 19 22  4  0
 20 28  1  0
 25 27  4  0
M  END
$$$$

 Created by Python create_sdf_string function

 28 30  0  0  0  0  0  0  0  0999 V2000
   11.4592   11.2893   18.7941 C   0  0  0  0  0  0  0  0  0  0  0  0
    3.4202    7.9009   20.3866 C   0  0  0  0  0  0  0  0  0  0  0  0
   13.5280   10.3522   19.3586 C   0  0  0  0  0  0  0  0  0  0  0  0
    9.6923    5.6468   22.7891 C   0  0  0  0  0  0  0  0  0  0  0  0
   11.7756   10.2554   20.8841 N   0  0  0  0  0  0  0  0  0  0  0  0
    8.9876   11.9370   19.8757 O   0  0  0  0  0  0  0  0  0  0  0  0
    6.0167    8.4478   21.1089 C   0  0  0  0  0  0  0  0  0  0  0  0
   11.0002   10.8890   20.0262 C   0  0  0  0  0  0  0  0  0  0  0  0
    2.1721    7.7393   20.0315 O   0  0  0  0  0  0  0  0  0  0  0  0
    9.1107   10.3880   21.3769 N   0  0  0  0  0  0  0  0  0  0  0  0
    3.9102    9.2008   20.3124 C   0  0  0  0  0  0  0  0  0  0  0  0
   12.7292   10.9960   18.4597 C   0  0  0  0  0  0  0  0  0  0  0  0
    9.3798    6.6793   23.6625 C   0  0  0  0  0  0  0  0  0  0  0  0
   14.7425   10.0739   19.0802 O   0  0  0  0  0  0  0  0  0  0  0  0
    5.1894    9.4673   20.7118 C   0  0  0  0  0  0  0  0  0  0  0  0
    7.3773    8.8224   21.4870 C   0  0  0  0  0  0  0  0  0  0  0  0
    8.4391    6.6439   21.0235 C   0  0  0  0  0  0  0  0  0  0  0  0
    9.6494   11.1353   20.4167 C   0  0  0  0  0  0  0  0  0  0  0  0
    8.1431    7.6829   21.9046 C   0  0  0  0  0  0  0  0  0  0  0  0
    7.7796   10.1314   21.5115 N   0  0  0  0  0  0  0  0  0  0  0  0
    9.2768    5.6183   21.4437 C   0  0  0  0  0  0  0  0  0  0  0  0
    8.6315    7.7322   23.1768 C   0  0  0  0  0  0  0  0  0  0  0  0
   13.0537    9.9821   20.5781 C   0  0  0  0  0  0  0  0  0  0  0  0
   10.3850    4.6575   23.2386 O   0  0  0  0  0  0  0  0  0  0  0  0
    4.2069    6.8450   20.7994 C   0  0  0  0  0  0  0  0  0  0  0  0
    3.0726   10.1043   19.8522 O   0  0  0  0  0  0  0  0  0  0  0  0
    5.5057    7.1196   21.1155 C   0  0  0  0  0  0  0  0  0  0  0  0
    7.0367   11.0229   21.9948 O   0  0  0  0  0  0  0  0  0  0  0  0
  1  8  4  0
  1 12  4  0
  2  9  1  0
  2 11  4  0
  2 25  4  0
  3 12  4  0
  3 14  1  0
  3 23  4  0
  4 13  4  0
  4 21  4  0
  4 24  1  0
  5  8  4  0
  5 23  4  0
  6 18  2  0
  7 15  4  0
  7 16  1  0
  7 27  4  0
  8 18  1  0
 10 18  1  0
 10 20  1  0
 11 15  4  0
 11 26  1  0
 13 22  4  0
 16 19  1  0
 16 20  2  0
 17 19  4  0
 17 21  4  0
 19 22  4  0
 20 28  1  0
 25 27  4  0
M  END
$$$$

 Created by Python create_sdf_string function

 28 30  0  0  0  0  0  0  0  0999 V2000
   11.4592   11.2893   18.7941 C   0  0  0  0  0  0  0  0  0  0  0  0
    3.4202    7.9009   20.3866 C   0  0  0  0  0  0  0  0  0  0  0  0
   13.5280   10.3522   19.3586 C   0  0  0  0  0  0  0  0  0  0  0  0
    9.6923    5.6468   22.7891 C   0  0  0  0  0  0  0  0  0  0  0  0
   11.7756   10.2554   20.8841 N   0  0  0  0  0  0  0  0  0  0  0  0
    8.9876   11.9370   19.8757 O   0  0  0  0  0  0  0  0  0  0  0  0
    6.0167    8.4478   21.1089 C   0  0  0  0  0  0  0  0  0  0  0  0
   11.0002   10.8890   20.0262 C   0  0  0  0  0  0  0  0  0  0  0  0
    2.1721    7.7393   20.0315 O   0  0  0  0  0  0  0  0  0  0  0  0
    9.1107   10.3880   21.3769 N   0  0  0  0  0  0  0  0  0  0  0  0
    3.9102    9.2008   20.3124 C   0  0  0  0  0  0  0  0  0  0  0  0
   12.7292   10.9960   18.4597 C   0  0  0  0  0  0  0  0  0  0  0  0
    9.3798    6.6793   23.6625 C   0  0  0  0  0  0  0  0  0  0  0  0
   14.7425   10.0739   19.0802 O   0  0  0  0  0  0  0  0  0  0  0  0
    5.1894    9.4673   20.7118 C   0  0  0  0  0  0  0  0  0  0  0  0
    7.3773    8.8224   21.4870 C   0  0  0  0  0  0  0  0  0  0  0  0
    8.4391    6.6439   21.0235 C   0  0  0  0  0  0  0  0  0  0  0  0
    9.6494   11.1353   20.4167 C   0  0  0  0  0  0  0  0  0  0  0  0
    8.1431    7.6829   21.9046 C   0  0  0  0  0  0  0  0  0  0  0  0
    7.7796   10.1314   21.5115 N   0  0  0  0  0  0  0  0  0  0  0  0
    9.2768    5.6183   21.4437 C   0  0  0  0  0  0  0  0  0  0  0  0
    8.6315    7.7322   23.1768 C   0  0  0  0  0  0  0  0  0  0  0  0
   13.0537    9.9821   20.5781 C   0  0  0  0  0  0  0  0  0  0  0  0
   10.3850    4.6575   23.2386 O   0  0  0  0  0  0  0  0  0  0  0  0
    4.2069    6.8450   20.7994 C   0  0  0  0  0  0  0  0  0  0  0  0
    3.0726   10.1043   19.8522 O   0  0  0  0  0  0  0  0  0  0  0  0
    5.5057    7.1196   21.1155 C   0  0  0  0  0  0  0  0  0  0  0  0
    7.0367   11.0229   21.9948 O   0  0  0  0  0  0  0  0  0  0  0  0
  1  8  4  0
  1 12  4  0
  2  9  1  0
  2 11  4  0
  2 25  4  0
  3 12  4  0
  3 14  1  0
  3 23  4  0
  4 13  4  0
  4 21  4  0
  4 24  1  0
  5  8  4  0
  5 23  4  0
  6 18  2  0
  7 15  4  0
  7 16  1  0
  7 27  4  0
  8 18  1  0
 10 18  1  0
 10 20  1  0
 11 15  4  0
 11 26  1  0
 13 22  4  0
 16 19  1  0
 16 20  2  0
 17 19  4  0
 17 21  4  0
 19 22  4  0
 20 28  1  0
 25 27  4  0
M  END
$$$$

 Created by Python create_sdf_string function

 28 30  0  0  0  0  0  0  0  0999 V2000
   11.4592   11.2893   18.7941 C   0  0  0  0  0  0  0  0  0  0  0  0
    3.4202    7.9009   20.3866 C   0  0  0  0  0  0  0  0  0  0  0  0
   13.5280   10.3522   19.3586 C   0  0  0  0  0  0  0  0  0  0  0  0
    9.6923    5.6468   22.7891 C   0  0  0  0  0  0  0  0  0  0  0  0
   11.7756   10.2554   20.8841 N   0  0  0  0  0  0  0  0  0  0  0  0
    8.9876   11.9370   19.8757 O   0  0  0  0  0  0  0  0  0  0  0  0
    6.0167    8.4478   21.1089 C   0  0  0  0  0  0  0  0  0  0  0  0
   11.0002   10.8890   20.0262 C   0  0  0  0  0  0  0  0  0  0  0  0
    2.1721    7.7393   20.0315 O   0  0  0  0  0  0  0  0  0  0  0  0
    9.1107   10.3880   21.3769 N   0  0  0  0  0  0  0  0  0  0  0  0
    3.9102    9.2008   20.3124 C   0  0  0  0  0  0  0  0  0  0  0  0
   12.7292   10.9960   18.4597 C   0  0  0  0  0  0  0  0  0  0  0  0
    9.3798    6.6793   23.6625 C   0  0  0  0  0  0  0  0  0  0  0  0
   14.7425   10.0739   19.0802 O   0  0  0  0  0  0  0  0  0  0  0  0
    5.1894    9.4673   20.7118 C   0  0  0  0  0  0  0  0  0  0  0  0
    7.3773    8.8224   21.4870 C   0  0  0  0  0  0  0  0  0  0  0  0
    8.4391    6.6439   21.0235 C   0  0  0  0  0  0  0  0  0  0  0  0
    9.6494   11.1353   20.4167 C   0  0  0  0  0  0  0  0  0  0  0  0
    8.1431    7.6829   21.9046 C   0  0  0  0  0  0  0  0  0  0  0  0
    7.7796   10.1314   21.5115 N   0  0  0  0  0  0  0  0  0  0  0  0
    9.2768    5.6183   21.4437 C   0  0  0  0  0  0  0  0  0  0  0  0
    8.6315    7.7322   23.1768 C   0  0  0  0  0  0  0  0  0  0  0  0
   13.0537    9.9821   20.5781 C   0  0  0  0  0  0  0  0  0  0  0  0
   10.3850    4.6575   23.2386 O   0  0  0  0  0  0  0  0  0  0  0  0
    4.2069    6.8450   20.7994 C   0  0  0  0  0  0  0  0  0  0  0  0
    3.0726   10.1043   19.8522 O   0  0  0  0  0  0  0  0  0  0  0  0
    5.5057    7.1196   21.1155 C   0  0  0  0  0  0  0  0  0  0  0  0
    7.0367   11.0229   21.9948 O   0  0  0  0  0  0  0  0  0  0  0  0
  1  8  4  0
  1 12  4  0
  2  9  1  0
  2 11  4  0
  2 25  4  0
  3 12  4  0
  3 14  1  0
  3 23  4  0
  4 13  4  0
  4 21  4  0
  4 24  1  0
  5  8  4  0
  5 23  4  0
  6 18  2  0
  7 15  4  0
  7 16  1  0
  7 27  4  0
  8 18  1  0
 10 18  1  0
 10 20  1  0
 11 15  4  0
 11 26  1  0
 13 22  4  0
 16 19  1  0
 16 20  2  0
 17 19  4  0
 17 21  4  0
 19 22  4  0
 20 28  1  0
 25 27  4  0
M  END
$$$$

 Created by Python create_sdf_string function

 28 30  0  0  0  0  0  0  0  0999 V2000
   11.4592   11.2893   18.7941 C   0  0  0  0  0  0  0  0  0  0  0  0
    3.4202    7.9009   20.3866 C   0  0  0  0  0  0  0  0  0  0  0  0
   13.5280   10.3522   19.3586 C   0  0  0  0  0  0  0  0  0  0  0  0
    9.6923    5.6468   22.7891 C   0  0  0  0  0  0  0  0  0  0  0  0
   11.7756   10.2554   20.8841 N   0  0  0  0  0  0  0  0  0  0  0  0
    8.9876   11.9370   19.8757 O   0  0  0  0  0  0  0  0  0  0  0  0
    6.0167    8.4478   21.1089 C   0  0  0  0  0  0  0  0  0  0  0  0
   11.0002   10.8890   20.0262 C   0  0  0  0  0  0  0  0  0  0  0  0
    2.1721    7.7393   20.0315 O   0  0  0  0  0  0  0  0  0  0  0  0
    9.1107   10.3880   21.3769 N   0  0  0  0  0  0  0  0  0  0  0  0
    3.9102    9.2008   20.3124 C   0  0  0  0  0  0  0  0  0  0  0  0
   12.7292   10.9960   18.4597 C   0  0  0  0  0  0  0  0  0  0  0  0
    9.3798    6.6793   23.6625 C   0  0  0  0  0  0  0  0  0  0  0  0
   14.7425   10.0739   19.0802 O   0  0  0  0  0  0  0  0  0  0  0  0
    5.1894    9.4673   20.7118 C   0  0  0  0  0  0  0  0  0  0  0  0
    7.3773    8.8224   21.4870 C   0  0  0  0  0  0  0  0  0  0  0  0
    8.4391    6.6439   21.0235 C   0  0  0  0  0  0  0  0  0  0  0  0
    9.6494   11.1353   20.4167 C   0  0  0  0  0  0  0  0  0  0  0  0
    8.1431    7.6829   21.9046 C   0  0  0  0  0  0  0  0  0  0  0  0
    7.7796   10.1314   21.5115 N   0  0  0  0  0  0  0  0  0  0  0  0
    9.2768    5.6183   21.4437 C   0  0  0  0  0  0  0  0  0  0  0  0
    8.6315    7.7322   23.1768 C   0  0  0  0  0  0  0  0  0  0  0  0
   13.0537    9.9821   20.5781 C   0  0  0  0  0  0  0  0  0  0  0  0
   10.3850    4.6575   23.2386 O   0  0  0  0  0  0  0  0  0  0  0  0
    4.2069    6.8450   20.7994 C   0  0  0  0  0  0  0  0  0  0  0  0
    3.0726   10.1043   19.8522 O   0  0  0  0  0  0  0  0  0  0  0  0
    5.5057    7.1196   21.1155 C   0  0  0  0  0  0  0  0  0  0  0  0
    7.0367   11.0229   21.9948 O   0  0  0  0  0  0  0  0  0  0  0  0
  1  8  4  0
  1 12  4  0
  2  9  1  0
  2 11  4  0
  2 25  4  0
  3 12  4  0
  3 14  1  0
  3 23  4  0
  4 13  4  0
  4 21  4  0
  4 24  1  0
  5  8  4  0
  5 23  4  0
  6 18  2  0
  7 15  4  0
  7 16  1  0
  7 27  4  0
  8 18  1  0
 10 18  1  0
 10 20  1  0
 11 15  4  0
 11 26  1  0
 13 22  4  0
 16 19  1  0
 16 20  2  0
 17 19  4  0
 17 21  4  0
 19 22  4  0
 20 28  1  0
 25 27  4  0
M  END
$$$$

 Created by Python create_sdf_string function

 28 30  0  0  0  0  0  0  0  0999 V2000
   11.4592   11.2893   18.7941 C   0  0  0  0  0  0  0  0  0  0  0  0
    3.4202    7.9009   20.3866 C   0  0  0  0  0  0  0  0  0  0  0  0
   13.5280   10.3522   19.3586 C   0  0  0  0  0  0  0  0  0  0  0  0
    9.6923    5.6468   22.7891 C   0  0  0  0  0  0  0  0  0  0  0  0
   11.7756   10.2554   20.8841 N   0  0  0  0  0  0  0  0  0  0  0  0
    8.9876   11.9370   19.8757 O   0  0  0  0  0  0  0  0  0  0  0  0
    6.0167    8.4478   21.1089 C   0  0  0  0  0  0  0  0  0  0  0  0
   11.0002   10.8890   20.0262 C   0  0  0  0  0  0  0  0  0  0  0  0
    2.1721    7.7393   20.0315 O   0  0  0  0  0  0  0  0  0  0  0  0
    9.1107   10.3880   21.3769 N   0  0  0  0  0  0  0  0  0  0  0  0
    3.9102    9.2008   20.3124 C   0  0  0  0  0  0  0  0  0  0  0  0
   12.7292   10.9960   18.4597 C   0  0  0  0  0  0  0  0  0  0  0  0
    9.3798    6.6793   23.6625 C   0  0  0  0  0  0  0  0  0  0  0  0
   14.7425   10.0739   19.0802 O   0  0  0  0  0  0  0  0  0  0  0  0
    5.1894    9.4673   20.7118 C   0  0  0  0  0  0  0  0  0  0  0  0
    7.3773    8.8224   21.4870 C   0  0  0  0  0  0  0  0  0  0  0  0
    8.4391    6.6439   21.0235 C   0  0  0  0  0  0  0  0  0  0  0  0
    9.6494   11.1353   20.4167 C   0  0  0  0  0  0  0  0  0  0  0  0
    8.1431    7.6829   21.9046 C   0  0  0  0  0  0  0  0  0  0  0  0
    7.7796   10.1314   21.5115 N   0  0  0  0  0  0  0  0  0  0  0  0
    9.2768    5.6183   21.4437 C   0  0  0  0  0  0  0  0  0  0  0  0
    8.6315    7.7322   23.1768 C   0  0  0  0  0  0  0  0  0  0  0  0
   13.0537    9.9821   20.5781 C   0  0  0  0  0  0  0  0  0  0  0  0
   10.3850    4.6575   23.2386 O   0  0  0  0  0  0  0  0  0  0  0  0
    4.2069    6.8450   20.7994 C   0  0  0  0  0  0  0  0  0  0  0  0
    3.0726   10.1043   19.8522 O   0  0  0  0  0  0  0  0  0  0  0  0
    5.5057    7.1196   21.1155 C   0  0  0  0  0  0  0  0  0  0  0  0
    7.0367   11.0229   21.9948 O   0  0  0  0  0  0  0  0  0  0  0  0
  1  8  4  0
  1 12  4  0
  2  9  1  0
  2 11  4  0
  2 25  4  0
  3 12  4  0
  3 14  1  0
  3 23  4  0
  4 13  4  0
  4 21  4  0
  4 24  1  0
  5  8  4  0
  5 23  4  0
  6 18  2  0
  7 15  4  0
  7 16  1  0
  7 27  4  0
  8 18  1  0
 10 18  1  0
 10 20  1  0
 11 15  4  0
 11 26  1  0
 13 22  4  0
 16 19  1  0
 16 20  2  0
 17 19  4  0
 17 21  4  0
 19 22  4  0
 20 28  1  0
 25 27  4  0
M  END
$$$$

 Created by Python create_sdf_string function

 28 30  0  0  0  0  0  0  0  0999 V2000
   11.4592   11.2893   18.7941 C   0  0  0  0  0  0  0  0  0  0  0  0
    3.4202    7.9009   20.3866 C   0  0  0  0  0  0  0  0  0  0  0  0
   13.5280   10.3522   19.3586 C   0  0  0  0  0  0  0  0  0  0  0  0
    9.6923    5.6468   22.7891 C   0  0  0  0  0  0  0  0  0  0  0  0
   11.7756   10.2554   20.8841 N   0  0  0  0  0  0  0  0  0  0  0  0
    8.9876   11.9370   19.8757 O   0  0  0  0  0  0  0  0  0  0  0  0
    6.0167    8.4478   21.1089 C   0  0  0  0  0  0  0  0  0  0  0  0
   11.0002   10.8890   20.0262 C   0  0  0  0  0  0  0  0  0  0  0  0
    2.1721    7.7393   20.0315 O   0  0  0  0  0  0  0  0  0  0  0  0
    9.1107   10.3880   21.3769 N   0  0  0  0  0  0  0  0  0  0  0  0
    3.9102    9.2008   20.3124 C   0  0  0  0  0  0  0  0  0  0  0  0
   12.7292   10.9960   18.4597 C   0  0  0  0  0  0  0  0  0  0  0  0
    9.3798    6.6793   23.6625 C   0  0  0  0  0  0  0  0  0  0  0  0
   14.7425   10.0739   19.0802 O   0  0  0  0  0  0  0  0  0  0  0  0
    5.1894    9.4673   20.7118 C   0  0  0  0  0  0  0  0  0  0  0  0
    7.3773    8.8224   21.4870 C   0  0  0  0  0  0  0  0  0  0  0  0
    8.4391    6.6439   21.0235 C   0  0  0  0  0  0  0  0  0  0  0  0
    9.6494   11.1353   20.4167 C   0  0  0  0  0  0  0  0  0  0  0  0
    8.1431    7.6829   21.9046 C   0  0  0  0  0  0  0  0  0  0  0  0
    7.7796   10.1314   21.5115 N   0  0  0  0  0  0  0  0  0  0  0  0
    9.2768    5.6183   21.4437 C   0  0  0  0  0  0  0  0  0  0  0  0
    8.6315    7.7322   23.1768 C   0  0  0  0  0  0  0  0  0  0  0  0
   13.0537    9.9821   20.5781 C   0  0  0  0  0  0  0  0  0  0  0  0
   10.3850    4.6575   23.2386 O   0  0  0  0  0  0  0  0  0  0  0  0
    4.2069    6.8450   20.7994 C   0  0  0  0  0  0  0  0  0  0  0  0
    3.0726   10.1043   19.8522 O   0  0  0  0  0  0  0  0  0  0  0  0
    5.5057    7.1196   21.1155 C   0  0  0  0  0  0  0  0  0  0  0  0
    7.0367   11.0229   21.9948 O   0  0  0  0  0  0  0  0  0  0  0  0
  1  8  4  0
  1 12  4  0
  2  9  1  0
  2 11  4  0
  2 25  4  0
  3 12  4  0
  3 14  1  0
  3 23  4  0
  4 13  4  0
  4 21  4  0
  4 24  1  0
  5  8  4  0
  5 23  4  0
  6 18  2  0
  7 15  4  0
  7 16  1  0
  7 27  4  0
  8 18  1  0
 10 18  1  0
 10 20  1  0
 11 15  4  0
 11 26  1  0
 13 22  4  0
 16 19  1  0
 16 20  2  0
 17 19  4  0
 17 21  4  0
 19 22  4  0
 20 28  1  0
 25 27  4  0
M  END
$$$$

 Created by Python create_sdf_string function

 28 30  0  0  0  0  0  0  0  0999 V2000
   11.4592   11.2893   18.7941 C   0  0  0  0  0  0  0  0  0  0  0  0
    3.4202    7.9009   20.3866 C   0  0  0  0  0  0  0  0  0  0  0  0
   13.5280   10.3522   19.3586 C   0  0  0  0  0  0  0  0  0  0  0  0
    9.6923    5.6468   22.7891 C   0  0  0  0  0  0  0  0  0  0  0  0
   11.7756   10.2554   20.8841 N   0  0  0  0  0  0  0  0  0  0  0  0
    8.9876   11.9370   19.8757 O   0  0  0  0  0  0  0  0  0  0  0  0
    6.0167    8.4478   21.1089 C   0  0  0  0  0  0  0  0  0  0  0  0
   11.0002   10.8890   20.0262 C   0  0  0  0  0  0  0  0  0  0  0  0
    2.1721    7.7393   20.0315 O   0  0  0  0  0  0  0  0  0  0  0  0
    9.1107   10.3880   21.3769 N   0  0  0  0  0  0  0  0  0  0  0  0
    3.9102    9.2008   20.3124 C   0  0  0  0  0  0  0  0  0  0  0  0
   12.7292   10.9960   18.4597 C   0  0  0  0  0  0  0  0  0  0  0  0
    9.3798    6.6793   23.6625 C   0  0  0  0  0  0  0  0  0  0  0  0
   14.7425   10.0739   19.0802 O   0  0  0  0  0  0  0  0  0  0  0  0
    5.1894    9.4673   20.7118 C   0  0  0  0  0  0  0  0  0  0  0  0
    7.3773    8.8224   21.4870 C   0  0  0  0  0  0  0  0  0  0  0  0
    8.4391    6.6439   21.0235 C   0  0  0  0  0  0  0  0  0  0  0  0
    9.6494   11.1353   20.4167 C   0  0  0  0  0  0  0  0  0  0  0  0
    8.1431    7.6829   21.9046 C   0  0  0  0  0  0  0  0  0  0  0  0
    7.7796   10.1314   21.5115 N   0  0  0  0  0  0  0  0  0  0  0  0
    9.2768    5.6183   21.4437 C   0  0  0  0  0  0  0  0  0  0  0  0
    8.6315    7.7322   23.1768 C   0  0  0  0  0  0  0  0  0  0  0  0
   13.0537    9.9821   20.5781 C   0  0  0  0  0  0  0  0  0  0  0  0
   10.3850    4.6575   23.2386 O   0  0  0  0  0  0  0  0  0  0  0  0
    4.2069    6.8450   20.7994 C   0  0  0  0  0  0  0  0  0  0  0  0
    3.0726   10.1043   19.8522 O   0  0  0  0  0  0  0  0  0  0  0  0
    5.5057    7.1196   21.1155 C   0  0  0  0  0  0  0  0  0  0  0  0
    7.0367   11.0229   21.9948 O   0  0  0  0  0  0  0  0  0  0  0  0
  1  8  4  0
  1 12  4  0
  2  9  1  0
  2 11  4  0
  2 25  4  0
  3 12  4  0
  3 14  1  0
  3 23  4  0
  4 13  4  0
  4 21  4  0
  4 24  1  0
  5  8  4  0
  5 23  4  0
  6 18  2  0
  7 15  4  0
  7 16  1  0
  7 27  4  0
  8 18  1  0
 10 18  1  0
 10 20  1  0
 11 15  4  0
 11 26  1  0
 13 22  4  0
 16 19  1  0
 16 20  2  0
 17 19  4  0
 17 21  4  0
 19 22  4  0
 20 28  1  0
 25 27  4  0
M  END
$$$$

 Created by Python create_sdf_string function

 28 30  0  0  0  0  0  0  0  0999 V2000
   11.4592   11.2893   18.7941 C   0  0  0  0  0  0  0  0  0  0  0  0
    3.4202    7.9009   20.3866 C   0  0  0  0  0  0  0  0  0  0  0  0
   13.5280   10.3522   19.3586 C   0  0  0  0  0  0  0  0  0  0  0  0
    9.6923    5.6468   22.7891 C   0  0  0  0  0  0  0  0  0  0  0  0
   11.7756   10.2554   20.8841 N   0  0  0  0  0  0  0  0  0  0  0  0
    8.9876   11.9370   19.8757 O   0  0  0  0  0  0  0  0  0  0  0  0
    6.0167    8.4478   21.1089 C   0  0  0  0  0  0  0  0  0  0  0  0
   11.0002   10.8890   20.0262 C   0  0  0  0  0  0  0  0  0  0  0  0
    2.1721    7.7393   20.0315 O   0  0  0  0  0  0  0  0  0  0  0  0
    9.1107   10.3880   21.3769 N   0  0  0  0  0  0  0  0  0  0  0  0
    3.9102    9.2008   20.3124 C   0  0  0  0  0  0  0  0  0  0  0  0
   12.7292   10.9960   18.4597 C   0  0  0  0  0  0  0  0  0  0  0  0
    9.3798    6.6793   23.6625 C   0  0  0  0  0  0  0  0  0  0  0  0
   14.7425   10.0739   19.0802 O   0  0  0  0  0  0  0  0  0  0  0  0
    5.1894    9.4673   20.7118 C   0  0  0  0  0  0  0  0  0  0  0  0
    7.3773    8.8224   21.4870 C   0  0  0  0  0  0  0  0  0  0  0  0
    8.4391    6.6439   21.0235 C   0  0  0  0  0  0  0  0  0  0  0  0
    9.6494   11.1353   20.4167 C   0  0  0  0  0  0  0  0  0  0  0  0
    8.1431    7.6829   21.9046 C   0  0  0  0  0  0  0  0  0  0  0  0
    7.7796   10.1314   21.5115 N   0  0  0  0  0  0  0  0  0  0  0  0
    9.2768    5.6183   21.4437 C   0  0  0  0  0  0  0  0  0  0  0  0
    8.6315    7.7322   23.1768 C   0  0  0  0  0  0  0  0  0  0  0  0
   13.0537    9.9821   20.5781 C   0  0  0  0  0  0  0  0  0  0  0  0
   10.3850    4.6575   23.2386 O   0  0  0  0  0  0  0  0  0  0  0  0
    4.2069    6.8450   20.7994 C   0  0  0  0  0  0  0  0  0  0  0  0
    3.0726   10.1043   19.8522 O   0  0  0  0  0  0  0  0  0  0  0  0
    5.5057    7.1196   21.1155 C   0  0  0  0  0  0  0  0  0  0  0  0
    7.0367   11.0229   21.9948 O   0  0  0  0  0  0  0  0  0  0  0  0
  1  8  4  0
  1 12  4  0
  2  9  1  0
  2 11  4  0
  2 25  4  0
  3 12  4  0
  3 14  1  0
  3 23  4  0
  4 13  4  0
  4 21  4  0
  4 24  1  0
  5  8  4  0
  5 23  4  0
  6 18  2  0
  7 15  4  0
  7 16  1  0
  7 27  4  0
  8 18  1  0
 10 18  1  0
 10 20  1  0
 11 15  4  0
 11 26  1  0
 13 22  4  0
 16 19  1  0
 16 20  2  0
 17 19  4  0
 17 21  4  0
 19 22  4  0
 20 28  1  0
 25 27  4  0
M  END
$$$$

 Created by Python create_sdf_string function

 28 30  0  0  0  0  0  0  0  0999 V2000
   11.4592   11.2893   18.7941 C   0  0  0  0  0  0  0  0  0  0  0  0
    3.4202    7.9009   20.3866 C   0  0  0  0  0  0  0  0  0  0  0  0
   13.5280   10.3522   19.3586 C   0  0  0  0  0  0  0  0  0  0  0  0
    9.6923    5.6468   22.7891 C   0  0  0  0  0  0  0  0  0  0  0  0
   11.7756   10.2554   20.8841 N   0  0  0  0  0  0  0  0  0  0  0  0
    8.9876   11.9370   19.8757 O   0  0  0  0  0  0  0  0  0  0  0  0
    6.0167    8.4478   21.1089 C   0  0  0  0  0  0  0  0  0  0  0  0
   11.0002   10.8890   20.0262 C   0  0  0  0  0  0  0  0  0  0  0  0
    2.1721    7.7393   20.0315 O   0  0  0  0  0  0  0  0  0  0  0  0
    9.1107   10.3880   21.3769 N   0  0  0  0  0  0  0  0  0  0  0  0
    3.9102    9.2008   20.3124 C   0  0  0  0  0  0  0  0  0  0  0  0
   12.7292   10.9960   18.4597 C   0  0  0  0  0  0  0  0  0  0  0  0
    9.3798    6.6793   23.6625 C   0  0  0  0  0  0  0  0  0  0  0  0
   14.7425   10.0739   19.0802 O   0  0  0  0  0  0  0  0  0  0  0  0
    5.1894    9.4673   20.7118 C   0  0  0  0  0  0  0  0  0  0  0  0
    7.3773    8.8224   21.4870 C   0  0  0  0  0  0  0  0  0  0  0  0
    8.4391    6.6439   21.0235 C   0  0  0  0  0  0  0  0  0  0  0  0
    9.6494   11.1353   20.4167 C   0  0  0  0  0  0  0  0  0  0  0  0
    8.1431    7.6829   21.9046 C   0  0  0  0  0  0  0  0  0  0  0  0
    7.7796   10.1314   21.5115 N   0  0  0  0  0  0  0  0  0  0  0  0
    9.2768    5.6183   21.4437 C   0  0  0  0  0  0  0  0  0  0  0  0
    8.6315    7.7322   23.1768 C   0  0  0  0  0  0  0  0  0  0  0  0
   13.0537    9.9821   20.5781 C   0  0  0  0  0  0  0  0  0  0  0  0
   10.3850    4.6575   23.2386 O   0  0  0  0  0  0  0  0  0  0  0  0
    4.2069    6.8450   20.7994 C   0  0  0  0  0  0  0  0  0  0  0  0
    3.0726   10.1043   19.8522 O   0  0  0  0  0  0  0  0  0  0  0  0
    5.5057    7.1196   21.1155 C   0  0  0  0  0  0  0  0  0  0  0  0
    7.0367   11.0229   21.9948 O   0  0  0  0  0  0  0  0  0  0  0  0
  1  8  4  0
  1 12  4  0
  2  9  1  0
  2 11  4  0
  2 25  4  0
  3 12  4  0
  3 14  1  0
  3 23  4  0
  4 13  4  0
  4 21  4  0
  4 24  1  0
  5  8  4  0
  5 23  4  0
  6 18  2  0
  7 15  4  0
  7 16  1  0
  7 27  4  0
  8 18  1  0
 10 18  1  0
 10 20  1  0
 11 15  4  0
 11 26  1  0
 13 22  4  0
 16 19  1  0
 16 20  2  0
 17 19  4  0
 17 21  4  0
 19 22  4  0
 20 28  1  0
 25 27  4  0
M  END
$$$$

 Created by Python create_sdf_string function

 28 30  0  0  0  0  0  0  0  0999 V2000
   11.4592   11.2893   18.7941 C   0  0  0  0  0  0  0  0  0  0  0  0
    3.4202    7.9009   20.3866 C   0  0  0  0  0  0  0  0  0  0  0  0
   13.5280   10.3522   19.3586 C   0  0  0  0  0  0  0  0  0  0  0  0
    9.6923    5.6468   22.7891 C   0  0  0  0  0  0  0  0  0  0  0  0
   11.7756   10.2554   20.8841 N   0  0  0  0  0  0  0  0  0  0  0  0
    8.9876   11.9370   19.8757 O   0  0  0  0  0  0  0  0  0  0  0  0
    6.0167    8.4478   21.1089 C   0  0  0  0  0  0  0  0  0  0  0  0
   11.0002   10.8890   20.0262 C   0  0  0  0  0  0  0  0  0  0  0  0
    2.1721    7.7393   20.0315 O   0  0  0  0  0  0  0  0  0  0  0  0
    9.1107   10.3880   21.3769 N   0  0  0  0  0  0  0  0  0  0  0  0
    3.9102    9.2008   20.3124 C   0  0  0  0  0  0  0  0  0  0  0  0
   12.7292   10.9960   18.4597 C   0  0  0  0  0  0  0  0  0  0  0  0
    9.3798    6.6793   23.6625 C   0  0  0  0  0  0  0  0  0  0  0  0
   14.7425   10.0739   19.0802 O   0  0  0  0  0  0  0  0  0  0  0  0
    5.1894    9.4673   20.7118 C   0  0  0  0  0  0  0  0  0  0  0  0
    7.3773    8.8224   21.4870 C   0  0  0  0  0  0  0  0  0  0  0  0
    8.4391    6.6439   21.0235 C   0  0  0  0  0  0  0  0  0  0  0  0
    9.6494   11.1353   20.4167 C   0  0  0  0  0  0  0  0  0  0  0  0
    8.1431    7.6829   21.9046 C   0  0  0  0  0  0  0  0  0  0  0  0
    7.7796   10.1314   21.5115 N   0  0  0  0  0  0  0  0  0  0  0  0
    9.2768    5.6183   21.4437 C   0  0  0  0  0  0  0  0  0  0  0  0
    8.6315    7.7322   23.1768 C   0  0  0  0  0  0  0  0  0  0  0  0
   13.0537    9.9821   20.5781 C   0  0  0  0  0  0  0  0  0  0  0  0
   10.3850    4.6575   23.2386 O   0  0  0  0  0  0  0  0  0  0  0  0
    4.2069    6.8450   20.7994 C   0  0  0  0  0  0  0  0  0  0  0  0
    3.0726   10.1043   19.8522 O   0  0  0  0  0  0  0  0  0  0  0  0
    5.5057    7.1196   21.1155 C   0  0  0  0  0  0  0  0  0  0  0  0
    7.0367   11.0229   21.9948 O   0  0  0  0  0  0  0  0  0  0  0  0
  1  8  4  0
  1 12  4  0
  2  9  1  0
  2 11  4  0
  2 25  4  0
  3 12  4  0
  3 14  1  0
  3 23  4  0
  4 13  4  0
  4 21  4  0
  4 24  1  0
  5  8  4  0
  5 23  4  0
  6 18  2  0
  7 15  4  0
  7 16  1  0
  7 27  4  0
  8 18  1  0
 10 18  1  0
 10 20  1  0
 11 15  4  0
 11 26  1  0
 13 22  4  0
 16 19  1  0
 16 20  2  0
 17 19  4  0
 17 21  4  0
 19 22  4  0
 20 28  1  0
 25 27  4  0
M  END
$$$$

 Created by Python create_sdf_string function

 28 30  0  0  0  0  0  0  0  0999 V2000
   11.4592   11.2893   18.7941 C   0  0  0  0  0  0  0  0  0  0  0  0
    3.4202    7.9009   20.3866 C   0  0  0  0  0  0  0  0  0  0  0  0
   13.5280   10.3522   19.3586 C   0  0  0  0  0  0  0  0  0  0  0  0
    9.6923    5.6468   22.7891 C   0  0  0  0  0  0  0  0  0  0  0  0
   11.7756   10.2554   20.8841 N   0  0  0  0  0  0  0  0  0  0  0  0
    8.9876   11.9370   19.8757 O   0  0  0  0  0  0  0  0  0  0  0  0
    6.0167    8.4478   21.1089 C   0  0  0  0  0  0  0  0  0  0  0  0
   11.0002   10.8890   20.0262 C   0  0  0  0  0  0  0  0  0  0  0  0
    2.1721    7.7393   20.0315 O   0  0  0  0  0  0  0  0  0  0  0  0
    9.1107   10.3880   21.3769 N   0  0  0  0  0  0  0  0  0  0  0  0
    3.9102    9.2008   20.3124 C   0  0  0  0  0  0  0  0  0  0  0  0
   12.7292   10.9960   18.4597 C   0  0  0  0  0  0  0  0  0  0  0  0
    9.3798    6.6793   23.6625 C   0  0  0  0  0  0  0  0  0  0  0  0
   14.7425   10.0739   19.0802 O   0  0  0  0  0  0  0  0  0  0  0  0
    5.1894    9.4673   20.7118 C   0  0  0  0  0  0  0  0  0  0  0  0
    7.3773    8.8224   21.4870 C   0  0  0  0  0  0  0  0  0  0  0  0
    8.4391    6.6439   21.0235 C   0  0  0  0  0  0  0  0  0  0  0  0
    9.6494   11.1353   20.4167 C   0  0  0  0  0  0  0  0  0  0  0  0
    8.1431    7.6829   21.9046 C   0  0  0  0  0  0  0  0  0  0  0  0
    7.7796   10.1314   21.5115 N   0  0  0  0  0  0  0  0  0  0  0  0
    9.2768    5.6183   21.4437 C   0  0  0  0  0  0  0  0  0  0  0  0
    8.6315    7.7322   23.1768 C   0  0  0  0  0  0  0  0  0  0  0  0
   13.0537    9.9821   20.5781 C   0  0  0  0  0  0  0  0  0  0  0  0
   10.3850    4.6575   23.2386 O   0  0  0  0  0  0  0  0  0  0  0  0
    4.2069    6.8450   20.7994 C   0  0  0  0  0  0  0  0  0  0  0  0
    3.0726   10.1043   19.8522 O   0  0  0  0  0  0  0  0  0  0  0  0
    5.5057    7.1196   21.1155 C   0  0  0  0  0  0  0  0  0  0  0  0
    7.0367   11.0229   21.9948 O   0  0  0  0  0  0  0  0  0  0  0  0
  1  8  4  0
  1 12  4  0
  2  9  1  0
  2 11  4  0
  2 25  4  0
  3 12  4  0
  3 14  1  0
  3 23  4  0
  4 13  4  0
  4 21  4  0
  4 24  1  0
  5  8  4  0
  5 23  4  0
  6 18  2  0
  7 15  4  0
  7 16  1  0
  7 27  4  0
  8 18  1  0
 10 18  1  0
 10 20  1  0
 11 15  4  0
 11 26  1  0
 13 22  4  0
 16 19  1  0
 16 20  2  0
 17 19  4  0
 17 21  4  0
 19 22  4  0
 20 28  1  0
 25 27  4  0
M  END
$$$$

 Created by Python create_sdf_string function

 28 30  0  0  0  0  0  0  0  0999 V2000
   11.4592   11.2893   18.7941 C   0  0  0  0  0  0  0  0  0  0  0  0
    3.4202    7.9009   20.3866 C   0  0  0  0  0  0  0  0  0  0  0  0
   13.5280   10.3522   19.3586 C   0  0  0  0  0  0  0  0  0  0  0  0
    9.6923    5.6468   22.7891 C   0  0  0  0  0  0  0  0  0  0  0  0
   11.7756   10.2554   20.8841 N   0  0  0  0  0  0  0  0  0  0  0  0
    8.9876   11.9370   19.8757 O   0  0  0  0  0  0  0  0  0  0  0  0
    6.0167    8.4478   21.1089 C   0  0  0  0  0  0  0  0  0  0  0  0
   11.0002   10.8890   20.0262 C   0  0  0  0  0  0  0  0  0  0  0  0
    2.1721    7.7393   20.0315 O   0  0  0  0  0  0  0  0  0  0  0  0
    9.1107   10.3880   21.3769 N   0  0  0  0  0  0  0  0  0  0  0  0
    3.9102    9.2008   20.3124 C   0  0  0  0  0  0  0  0  0  0  0  0
   12.7292   10.9960   18.4597 C   0  0  0  0  0  0  0  0  0  0  0  0
    9.3798    6.6793   23.6625 C   0  0  0  0  0  0  0  0  0  0  0  0
   14.7425   10.0739   19.0802 O   0  0  0  0  0  0  0  0  0  0  0  0
    5.1894    9.4673   20.7118 C   0  0  0  0  0  0  0  0  0  0  0  0
    7.3773    8.8224   21.4870 C   0  0  0  0  0  0  0  0  0  0  0  0
    8.4391    6.6439   21.0235 C   0  0  0  0  0  0  0  0  0  0  0  0
    9.6494   11.1353   20.4167 C   0  0  0  0  0  0  0  0  0  0  0  0
    8.1431    7.6829   21.9046 C   0  0  0  0  0  0  0  0  0  0  0  0
    7.7796   10.1314   21.5115 N   0  0  0  0  0  0  0  0  0  0  0  0
    9.2768    5.6183   21.4437 C   0  0  0  0  0  0  0  0  0  0  0  0
    8.6315    7.7322   23.1768 C   0  0  0  0  0  0  0  0  0  0  0  0
   13.0537    9.9821   20.5781 C   0  0  0  0  0  0  0  0  0  0  0  0
   10.3850    4.6575   23.2386 O   0  0  0  0  0  0  0  0  0  0  0  0
    4.2069    6.8450   20.7994 C   0  0  0  0  0  0  0  0  0  0  0  0
    3.0726   10.1043   19.8522 O   0  0  0  0  0  0  0  0  0  0  0  0
    5.5057    7.1196   21.1155 C   0  0  0  0  0  0  0  0  0  0  0  0
    7.0367   11.0229   21.9948 O   0  0  0  0  0  0  0  0  0  0  0  0
  1  8  4  0
  1 12  4  0
  2  9  1  0
  2 11  4  0
  2 25  4  0
  3 12  4  0
  3 14  1  0
  3 23  4  0
  4 13  4  0
  4 21  4  0
  4 24  1  0
  5  8  4  0
  5 23  4  0
  6 18  2  0
  7 15  4  0
  7 16  1  0
  7 27  4  0
  8 18  1  0
 10 18  1  0
 10 20  1  0
 11 15  4  0
 11 26  1  0
 13 22  4  0
 16 19  1  0
 16 20  2  0
 17 19  4  0
 17 21  4  0
 19 22  4  0
 20 28  1  0
 25 27  4  0
M  END
$$$$

 Created by Python create_sdf_string function

 28 30  0  0  0  0  0  0  0  0999 V2000
   11.4592   11.2893   18.7941 C   0  0  0  0  0  0  0  0  0  0  0  0
    3.4202    7.9009   20.3866 C   0  0  0  0  0  0  0  0  0  0  0  0
   13.5280   10.3522   19.3586 C   0  0  0  0  0  0  0  0  0  0  0  0
    9.6923    5.6468   22.7891 C   0  0  0  0  0  0  0  0  0  0  0  0
   11.7756   10.2554   20.8841 N   0  0  0  0  0  0  0  0  0  0  0  0
    8.9876   11.9370   19.8757 O   0  0  0  0  0  0  0  0  0  0  0  0
    6.0167    8.4478   21.1089 C   0  0  0  0  0  0  0  0  0  0  0  0
   11.0002   10.8890   20.0262 C   0  0  0  0  0  0  0  0  0  0  0  0
    2.1721    7.7393   20.0315 O   0  0  0  0  0  0  0  0  0  0  0  0
    9.1107   10.3880   21.3769 N   0  0  0  0  0  0  0  0  0  0  0  0
    3.9102    9.2008   20.3124 C   0  0  0  0  0  0  0  0  0  0  0  0
   12.7292   10.9960   18.4597 C   0  0  0  0  0  0  0  0  0  0  0  0
    9.3798    6.6793   23.6625 C   0  0  0  0  0  0  0  0  0  0  0  0
   14.7425   10.0739   19.0802 O   0  0  0  0  0  0  0  0  0  0  0  0
    5.1894    9.4673   20.7118 C   0  0  0  0  0  0  0  0  0  0  0  0
    7.3773    8.8224   21.4870 C   0  0  0  0  0  0  0  0  0  0  0  0
    8.4391    6.6439   21.0235 C   0  0  0  0  0  0  0  0  0  0  0  0
    9.6494   11.1353   20.4167 C   0  0  0  0  0  0  0  0  0  0  0  0
    8.1431    7.6829   21.9046 C   0  0  0  0  0  0  0  0  0  0  0  0
    7.7796   10.1314   21.5115 N   0  0  0  0  0  0  0  0  0  0  0  0
    9.2768    5.6183   21.4437 C   0  0  0  0  0  0  0  0  0  0  0  0
    8.6315    7.7322   23.1768 C   0  0  0  0  0  0  0  0  0  0  0  0
   13.0537    9.9821   20.5781 C   0  0  0  0  0  0  0  0  0  0  0  0
   10.3850    4.6575   23.2386 O   0  0  0  0  0  0  0  0  0  0  0  0
    4.2069    6.8450   20.7994 C   0  0  0  0  0  0  0  0  0  0  0  0
    3.0726   10.1043   19.8522 O   0  0  0  0  0  0  0  0  0  0  0  0
    5.5057    7.1196   21.1155 C   0  0  0  0  0  0  0  0  0  0  0  0
    7.0367   11.0229   21.9948 O   0  0  0  0  0  0  0  0  0  0  0  0
  1  8  4  0
  1 12  4  0
  2  9  1  0
  2 11  4  0
  2 25  4  0
  3 12  4  0
  3 14  1  0
  3 23  4  0
  4 13  4  0
  4 21  4  0
  4 24  1  0
  5  8  4  0
  5 23  4  0
  6 18  2  0
  7 15  4  0
  7 16  1  0
  7 27  4  0
  8 18  1  0
 10 18  1  0
 10 20  1  0
 11 15  4  0
 11 26  1  0
 13 22  4  0
 16 19  1  0
 16 20  2  0
 17 19  4  0
 17 21  4  0
 19 22  4  0
 20 28  1  0
 25 27  4  0
M  END
$$$$

 Created by Python create_sdf_string function

 28 30  0  0  0  0  0  0  0  0999 V2000
   11.4592   11.2893   18.7941 C   0  0  0  0  0  0  0  0  0  0  0  0
    3.4202    7.9009   20.3866 C   0  0  0  0  0  0  0  0  0  0  0  0
   13.5280   10.3522   19.3586 C   0  0  0  0  0  0  0  0  0  0  0  0
    9.6923    5.6468   22.7891 C   0  0  0  0  0  0  0  0  0  0  0  0
   11.7756   10.2554   20.8841 N   0  0  0  0  0  0  0  0  0  0  0  0
    8.9876   11.9370   19.8757 O   0  0  0  0  0  0  0  0  0  0  0  0
    6.0167    8.4478   21.1089 C   0  0  0  0  0  0  0  0  0  0  0  0
   11.0002   10.8890   20.0262 C   0  0  0  0  0  0  0  0  0  0  0  0
    2.1721    7.7393   20.0315 O   0  0  0  0  0  0  0  0  0  0  0  0
    9.1107   10.3880   21.3769 N   0  0  0  0  0  0  0  0  0  0  0  0
    3.9102    9.2008   20.3124 C   0  0  0  0  0  0  0  0  0  0  0  0
   12.7292   10.9960   18.4597 C   0  0  0  0  0  0  0  0  0  0  0  0
    9.3798    6.6793   23.6625 C   0  0  0  0  0  0  0  0  0  0  0  0
   14.7425   10.0739   19.0802 O   0  0  0  0  0  0  0  0  0  0  0  0
    5.1894    9.4673   20.7118 C   0  0  0  0  0  0  0  0  0  0  0  0
    7.3773    8.8224   21.4870 C   0  0  0  0  0  0  0  0  0  0  0  0
    8.4391    6.6439   21.0235 C   0  0  0  0  0  0  0  0  0  0  0  0
    9.6494   11.1353   20.4167 C   0  0  0  0  0  0  0  0  0  0  0  0
    8.1431    7.6829   21.9046 C   0  0  0  0  0  0  0  0  0  0  0  0
    7.7796   10.1314   21.5115 N   0  0  0  0  0  0  0  0  0  0  0  0
    9.2768    5.6183   21.4437 C   0  0  0  0  0  0  0  0  0  0  0  0
    8.6315    7.7322   23.1768 C   0  0  0  0  0  0  0  0  0  0  0  0
   13.0537    9.9821   20.5781 C   0  0  0  0  0  0  0  0  0  0  0  0
   10.3850    4.6575   23.2386 O   0  0  0  0  0  0  0  0  0  0  0  0
    4.2069    6.8450   20.7994 C   0  0  0  0  0  0  0  0  0  0  0  0
    3.0726   10.1043   19.8522 O   0  0  0  0  0  0  0  0  0  0  0  0
    5.5057    7.1196   21.1155 C   0  0  0  0  0  0  0  0  0  0  0  0
    7.0367   11.0229   21.9948 O   0  0  0  0  0  0  0  0  0  0  0  0
  1  8  4  0
  1 12  4  0
  2  9  1  0
  2 11  4  0
  2 25  4  0
  3 12  4  0
  3 14  1  0
  3 23  4  0
  4 13  4  0
  4 21  4  0
  4 24  1  0
  5  8  4  0
  5 23  4  0
  6 18  2  0
  7 15  4  0
  7 16  1  0
  7 27  4  0
  8 18  1  0
 10 18  1  0
 10 20  1  0
 11 15  4  0
 11 26  1  0
 13 22  4  0
 16 19  1  0
 16 20  2  0
 17 19  4  0
 17 21  4  0
 19 22  4  0
 20 28  1  0
 25 27  4  0
M  END
$$$$

 Created by Python create_sdf_string function

 28 30  0  0  0  0  0  0  0  0999 V2000
   11.4592   11.2893   18.7941 C   0  0  0  0  0  0  0  0  0  0  0  0
    3.4202    7.9009   20.3866 C   0  0  0  0  0  0  0  0  0  0  0  0
   13.5280   10.3522   19.3586 C   0  0  0  0  0  0  0  0  0  0  0  0
    9.6923    5.6468   22.7891 C   0  0  0  0  0  0  0  0  0  0  0  0
   11.7756   10.2554   20.8841 N   0  0  0  0  0  0  0  0  0  0  0  0
    8.9876   11.9370   19.8757 O   0  0  0  0  0  0  0  0  0  0  0  0
    6.0167    8.4478   21.1089 C   0  0  0  0  0  0  0  0  0  0  0  0
   11.0002   10.8890   20.0262 C   0  0  0  0  0  0  0  0  0  0  0  0
    2.1721    7.7393   20.0315 O   0  0  0  0  0  0  0  0  0  0  0  0
    9.1107   10.3880   21.3769 N   0  0  0  0  0  0  0  0  0  0  0  0
    3.9102    9.2008   20.3124 C   0  0  0  0  0  0  0  0  0  0  0  0
   12.7292   10.9960   18.4597 C   0  0  0  0  0  0  0  0  0  0  0  0
    9.3798    6.6793   23.6625 C   0  0  0  0  0  0  0  0  0  0  0  0
   14.7425   10.0739   19.0802 O   0  0  0  0  0  0  0  0  0  0  0  0
    5.1894    9.4673   20.7118 C   0  0  0  0  0  0  0  0  0  0  0  0
    7.3773    8.8224   21.4870 C   0  0  0  0  0  0  0  0  0  0  0  0
    8.4391    6.6439   21.0235 C   0  0  0  0  0  0  0  0  0  0  0  0
    9.6494   11.1353   20.4167 C   0  0  0  0  0  0  0  0  0  0  0  0
    8.1431    7.6829   21.9046 C   0  0  0  0  0  0  0  0  0  0  0  0
    7.7796   10.1314   21.5115 N   0  0  0  0  0  0  0  0  0  0  0  0
    9.2768    5.6183   21.4437 C   0  0  0  0  0  0  0  0  0  0  0  0
    8.6315    7.7322   23.1768 C   0  0  0  0  0  0  0  0  0  0  0  0
   13.0537    9.9821   20.5781 C   0  0  0  0  0  0  0  0  0  0  0  0
   10.3850    4.6575   23.2386 O   0  0  0  0  0  0  0  0  0  0  0  0
    4.2069    6.8450   20.7994 C   0  0  0  0  0  0  0  0  0  0  0  0
    3.0726   10.1043   19.8522 O   0  0  0  0  0  0  0  0  0  0  0  0
    5.5057    7.1196   21.1155 C   0  0  0  0  0  0  0  0  0  0  0  0
    7.0367   11.0229   21.9948 O   0  0  0  0  0  0  0  0  0  0  0  0
  1  8  4  0
  1 12  4  0
  2  9  1  0
  2 11  4  0
  2 25  4  0
  3 12  4  0
  3 14  1  0
  3 23  4  0
  4 13  4  0
  4 21  4  0
  4 24  1  0
  5  8  4  0
  5 23  4  0
  6 18  2  0
  7 15  4  0
  7 16  1  0
  7 27  4  0
  8 18  1  0
 10 18  1  0
 10 20  1  0
 11 15  4  0
 11 26  1  0
 13 22  4  0
 16 19  1  0
 16 20  2  0
 17 19  4  0
 17 21  4  0
 19 22  4  0
 20 28  1  0
 25 27  4  0
M  END
$$$$

 Created by Python create_sdf_string function

 28 30  0  0  0  0  0  0  0  0999 V2000
   11.4592   11.2893   18.7941 C   0  0  0  0  0  0  0  0  0  0  0  0
    3.4202    7.9009   20.3866 C   0  0  0  0  0  0  0  0  0  0  0  0
   13.5280   10.3522   19.3586 C   0  0  0  0  0  0  0  0  0  0  0  0
    9.6923    5.6468   22.7891 C   0  0  0  0  0  0  0  0  0  0  0  0
   11.7756   10.2554   20.8841 N   0  0  0  0  0  0  0  0  0  0  0  0
    8.9876   11.9370   19.8757 O   0  0  0  0  0  0  0  0  0  0  0  0
    6.0167    8.4478   21.1089 C   0  0  0  0  0  0  0  0  0  0  0  0
   11.0002   10.8890   20.0262 C   0  0  0  0  0  0  0  0  0  0  0  0
    2.1721    7.7393   20.0315 O   0  0  0  0  0  0  0  0  0  0  0  0
    9.1107   10.3880   21.3769 N   0  0  0  0  0  0  0  0  0  0  0  0
    3.9102    9.2008   20.3124 C   0  0  0  0  0  0  0  0  0  0  0  0
   12.7292   10.9960   18.4597 C   0  0  0  0  0  0  0  0  0  0  0  0
    9.3798    6.6793   23.6625 C   0  0  0  0  0  0  0  0  0  0  0  0
   14.7425   10.0739   19.0802 O   0  0  0  0  0  0  0  0  0  0  0  0
    5.1894    9.4673   20.7118 C   0  0  0  0  0  0  0  0  0  0  0  0
    7.3773    8.8224   21.4870 C   0  0  0  0  0  0  0  0  0  0  0  0
    8.4391    6.6439   21.0235 C   0  0  0  0  0  0  0  0  0  0  0  0
    9.6494   11.1353   20.4167 C   0  0  0  0  0  0  0  0  0  0  0  0
    8.1431    7.6829   21.9046 C   0  0  0  0  0  0  0  0  0  0  0  0
    7.7796   10.1314   21.5115 N   0  0  0  0  0  0  0  0  0  0  0  0
    9.2768    5.6183   21.4437 C   0  0  0  0  0  0  0  0  0  0  0  0
    8.6315    7.7322   23.1768 C   0  0  0  0  0  0  0  0  0  0  0  0
   13.0537    9.9821   20.5781 C   0  0  0  0  0  0  0  0  0  0  0  0
   10.3850    4.6575   23.2386 O   0  0  0  0  0  0  0  0  0  0  0  0
    4.2069    6.8450   20.7994 C   0  0  0  0  0  0  0  0  0  0  0  0
    3.0726   10.1043   19.8522 O   0  0  0  0  0  0  0  0  0  0  0  0
    5.5057    7.1196   21.1155 C   0  0  0  0  0  0  0  0  0  0  0  0
    7.0367   11.0229   21.9948 O   0  0  0  0  0  0  0  0  0  0  0  0
  1  8  4  0
  1 12  4  0
  2  9  1  0
  2 11  4  0
  2 25  4  0
  3 12  4  0
  3 14  1  0
  3 23  4  0
  4 13  4  0
  4 21  4  0
  4 24  1  0
  5  8  4  0
  5 23  4  0
  6 18  2  0
  7 15  4  0
  7 16  1  0
  7 27  4  0
  8 18  1  0
 10 18  1  0
 10 20  1  0
 11 15  4  0
 11 26  1  0
 13 22  4  0
 16 19  1  0
 16 20  2  0
 17 19  4  0
 17 21  4  0
 19 22  4  0
 20 28  1  0
 25 27  4  0
M  END
$$$$

 Created by Python create_sdf_string function

 28 30  0  0  0  0  0  0  0  0999 V2000
   11.4592   11.2893   18.7941 C   0  0  0  0  0  0  0  0  0  0  0  0
    3.4202    7.9009   20.3866 C   0  0  0  0  0  0  0  0  0  0  0  0
   13.5280   10.3522   19.3586 C   0  0  0  0  0  0  0  0  0  0  0  0
    9.6923    5.6468   22.7891 C   0  0  0  0  0  0  0  0  0  0  0  0
   11.7756   10.2554   20.8841 N   0  0  0  0  0  0  0  0  0  0  0  0
    8.9876   11.9370   19.8757 O   0  0  0  0  0  0  0  0  0  0  0  0
    6.0167    8.4478   21.1089 C   0  0  0  0  0  0  0  0  0  0  0  0
   11.0002   10.8890   20.0262 C   0  0  0  0  0  0  0  0  0  0  0  0
    2.1721    7.7393   20.0315 O   0  0  0  0  0  0  0  0  0  0  0  0
    9.1107   10.3880   21.3769 N   0  0  0  0  0  0  0  0  0  0  0  0
    3.9102    9.2008   20.3124 C   0  0  0  0  0  0  0  0  0  0  0  0
   12.7292   10.9960   18.4597 C   0  0  0  0  0  0  0  0  0  0  0  0
    9.3798    6.6793   23.6625 C   0  0  0  0  0  0  0  0  0  0  0  0
   14.7425   10.0739   19.0802 O   0  0  0  0  0  0  0  0  0  0  0  0
    5.1894    9.4673   20.7118 C   0  0  0  0  0  0  0  0  0  0  0  0
    7.3773    8.8224   21.4870 C   0  0  0  0  0  0  0  0  0  0  0  0
    8.4391    6.6439   21.0235 C   0  0  0  0  0  0  0  0  0  0  0  0
    9.6494   11.1353   20.4167 C   0  0  0  0  0  0  0  0  0  0  0  0
    8.1431    7.6829   21.9046 C   0  0  0  0  0  0  0  0  0  0  0  0
    7.7796   10.1314   21.5115 N   0  0  0  0  0  0  0  0  0  0  0  0
    9.2768    5.6183   21.4437 C   0  0  0  0  0  0  0  0  0  0  0  0
    8.6315    7.7322   23.1768 C   0  0  0  0  0  0  0  0  0  0  0  0
   13.0537    9.9821   20.5781 C   0  0  0  0  0  0  0  0  0  0  0  0
   10.3850    4.6575   23.2386 O   0  0  0  0  0  0  0  0  0  0  0  0
    4.2069    6.8450   20.7994 C   0  0  0  0  0  0  0  0  0  0  0  0
    3.0726   10.1043   19.8522 O   0  0  0  0  0  0  0  0  0  0  0  0
    5.5057    7.1196   21.1155 C   0  0  0  0  0  0  0  0  0  0  0  0
    7.0367   11.0229   21.9948 O   0  0  0  0  0  0  0  0  0  0  0  0
  1  8  4  0
  1 12  4  0
  2  9  1  0
  2 11  4  0
  2 25  4  0
  3 12  4  0
  3 14  1  0
  3 23  4  0
  4 13  4  0
  4 21  4  0
  4 24  1  0
  5  8  4  0
  5 23  4  0
  6 18  2  0
  7 15  4  0
  7 16  1  0
  7 27  4  0
  8 18  1  0
 10 18  1  0
 10 20  1  0
 11 15  4  0
 11 26  1  0
 13 22  4  0
 16 19  1  0
 16 20  2  0
 17 19  4  0
 17 21  4  0
 19 22  4  0
 20 28  1  0
 25 27  4  0
M  END
$$$$

 Created by Python create_sdf_string function

 28 30  0  0  0  0  0  0  0  0999 V2000
   11.4592   11.2893   18.7941 C   0  0  0  0  0  0  0  0  0  0  0  0
    3.4202    7.9009   20.3866 C   0  0  0  0  0  0  0  0  0  0  0  0
   13.5280   10.3522   19.3586 C   0  0  0  0  0  0  0  0  0  0  0  0
    9.6923    5.6468   22.7891 C   0  0  0  0  0  0  0  0  0  0  0  0
   11.7756   10.2554   20.8841 N   0  0  0  0  0  0  0  0  0  0  0  0
    8.9876   11.9370   19.8757 O   0  0  0  0  0  0  0  0  0  0  0  0
    6.0167    8.4478   21.1089 C   0  0  0  0  0  0  0  0  0  0  0  0
   11.0002   10.8890   20.0262 C   0  0  0  0  0  0  0  0  0  0  0  0
    2.1721    7.7393   20.0315 O   0  0  0  0  0  0  0  0  0  0  0  0
    9.1107   10.3880   21.3769 N   0  0  0  0  0  0  0  0  0  0  0  0
    3.9102    9.2008   20.3124 C   0  0  0  0  0  0  0  0  0  0  0  0
   12.7292   10.9960   18.4597 C   0  0  0  0  0  0  0  0  0  0  0  0
    9.3798    6.6793   23.6625 C   0  0  0  0  0  0  0  0  0  0  0  0
   14.7425   10.0739   19.0802 O   0  0  0  0  0  0  0  0  0  0  0  0
    5.1894    9.4673   20.7118 C   0  0  0  0  0  0  0  0  0  0  0  0
    7.3773    8.8224   21.4870 C   0  0  0  0  0  0  0  0  0  0  0  0
    8.4391    6.6439   21.0235 C   0  0  0  0  0  0  0  0  0  0  0  0
    9.6494   11.1353   20.4167 C   0  0  0  0  0  0  0  0  0  0  0  0
    8.1431    7.6829   21.9046 C   0  0  0  0  0  0  0  0  0  0  0  0
    7.7796   10.1314   21.5115 N   0  0  0  0  0  0  0  0  0  0  0  0
    9.2768    5.6183   21.4437 C   0  0  0  0  0  0  0  0  0  0  0  0
    8.6315    7.7322   23.1768 C   0  0  0  0  0  0  0  0  0  0  0  0
   13.0537    9.9821   20.5781 C   0  0  0  0  0  0  0  0  0  0  0  0
   10.3850    4.6575   23.2386 O   0  0  0  0  0  0  0  0  0  0  0  0
    4.2069    6.8450   20.7994 C   0  0  0  0  0  0  0  0  0  0  0  0
    3.0726   10.1043   19.8522 O   0  0  0  0  0  0  0  0  0  0  0  0
    5.5057    7.1196   21.1155 C   0  0  0  0  0  0  0  0  0  0  0  0
    7.0367   11.0229   21.9948 O   0  0  0  0  0  0  0  0  0  0  0  0
  1  8  4  0
  1 12  4  0
  2  9  1  0
  2 11  4  0
  2 25  4  0
  3 12  4  0
  3 14  1  0
  3 23  4  0
  4 13  4  0
  4 21  4  0
  4 24  1  0
  5  8  4  0
  5 23  4  0
  6 18  2  0
  7 15  4  0
  7 16  1  0
  7 27  4  0
  8 18  1  0
 10 18  1  0
 10 20  1  0
 11 15  4  0
 11 26  1  0
 13 22  4  0
 16 19  1  0
 16 20  2  0
 17 19  4  0
 17 21  4  0
 19 22  4  0
 20 28  1  0
 25 27  4  0
M  END
$$$$

 Created by Python create_sdf_string function

 28 30  0  0  0  0  0  0  0  0999 V2000
   11.4592   11.2893   18.7941 C   0  0  0  0  0  0  0  0  0  0  0  0
    3.4202    7.9009   20.3866 C   0  0  0  0  0  0  0  0  0  0  0  0
   13.5280   10.3522   19.3586 C   0  0  0  0  0  0  0  0  0  0  0  0
    9.6923    5.6468   22.7891 C   0  0  0  0  0  0  0  0  0  0  0  0
   11.7756   10.2554   20.8841 N   0  0  0  0  0  0  0  0  0  0  0  0
    8.9876   11.9370   19.8757 O   0  0  0  0  0  0  0  0  0  0  0  0
    6.0167    8.4478   21.1089 C   0  0  0  0  0  0  0  0  0  0  0  0
   11.0002   10.8890   20.0262 C   0  0  0  0  0  0  0  0  0  0  0  0
    2.1721    7.7393   20.0315 O   0  0  0  0  0  0  0  0  0  0  0  0
    9.1107   10.3880   21.3769 N   0  0  0  0  0  0  0  0  0  0  0  0
    3.9102    9.2008   20.3124 C   0  0  0  0  0  0  0  0  0  0  0  0
   12.7292   10.9960   18.4597 C   0  0  0  0  0  0  0  0  0  0  0  0
    9.3798    6.6793   23.6625 C   0  0  0  0  0  0  0  0  0  0  0  0
   14.7425   10.0739   19.0802 O   0  0  0  0  0  0  0  0  0  0  0  0
    5.1894    9.4673   20.7118 C   0  0  0  0  0  0  0  0  0  0  0  0
    7.3773    8.8224   21.4870 C   0  0  0  0  0  0  0  0  0  0  0  0
    8.4391    6.6439   21.0235 C   0  0  0  0  0  0  0  0  0  0  0  0
    9.6494   11.1353   20.4167 C   0  0  0  0  0  0  0  0  0  0  0  0
    8.1431    7.6829   21.9046 C   0  0  0  0  0  0  0  0  0  0  0  0
    7.7796   10.1314   21.5115 N   0  0  0  0  0  0  0  0  0  0  0  0
    9.2768    5.6183   21.4437 C   0  0  0  0  0  0  0  0  0  0  0  0
    8.6315    7.7322   23.1768 C   0  0  0  0  0  0  0  0  0  0  0  0
   13.0537    9.9821   20.5781 C   0  0  0  0  0  0  0  0  0  0  0  0
   10.3850    4.6575   23.2386 O   0  0  0  0  0  0  0  0  0  0  0  0
    4.2069    6.8450   20.7994 C   0  0  0  0  0  0  0  0  0  0  0  0
    3.0726   10.1043   19.8522 O   0  0  0  0  0  0  0  0  0  0  0  0
    5.5057    7.1196   21.1155 C   0  0  0  0  0  0  0  0  0  0  0  0
    7.0367   11.0229   21.9948 O   0  0  0  0  0  0  0  0  0  0  0  0
  1  8  4  0
  1 12  4  0
  2  9  1  0
  2 11  4  0
  2 25  4  0
  3 12  4  0
  3 14  1  0
  3 23  4  0
  4 13  4  0
  4 21  4  0
  4 24  1  0
  5  8  4  0
  5 23  4  0
  6 18  2  0
  7 15  4  0
  7 16  1  0
  7 27  4  0
  8 18  1  0
 10 18  1  0
 10 20  1  0
 11 15  4  0
 11 26  1  0
 13 22  4  0
 16 19  1  0
 16 20  2  0
 17 19  4  0
 17 21  4  0
 19 22  4  0
 20 28  1  0
 25 27  4  0
M  END
$$$$

 Created by Python create_sdf_string function

 28 30  0  0  0  0  0  0  0  0999 V2000
   11.4592   11.2893   18.7941 C   0  0  0  0  0  0  0  0  0  0  0  0
    3.4202    7.9009   20.3866 C   0  0  0  0  0  0  0  0  0  0  0  0
   13.5280   10.3522   19.3586 C   0  0  0  0  0  0  0  0  0  0  0  0
    9.6923    5.6468   22.7891 C   0  0  0  0  0  0  0  0  0  0  0  0
   11.7756   10.2554   20.8841 N   0  0  0  0  0  0  0  0  0  0  0  0
    8.9876   11.9370   19.8757 O   0  0  0  0  0  0  0  0  0  0  0  0
    6.0167    8.4478   21.1089 C   0  0  0  0  0  0  0  0  0  0  0  0
   11.0002   10.8890   20.0262 C   0  0  0  0  0  0  0  0  0  0  0  0
    2.1721    7.7393   20.0315 O   0  0  0  0  0  0  0  0  0  0  0  0
    9.1107   10.3880   21.3769 N   0  0  0  0  0  0  0  0  0  0  0  0
    3.9102    9.2008   20.3124 C   0  0  0  0  0  0  0  0  0  0  0  0
   12.7292   10.9960   18.4597 C   0  0  0  0  0  0  0  0  0  0  0  0
    9.3798    6.6793   23.6625 C   0  0  0  0  0  0  0  0  0  0  0  0
   14.7425   10.0739   19.0802 O   0  0  0  0  0  0  0  0  0  0  0  0
    5.1894    9.4673   20.7118 C   0  0  0  0  0  0  0  0  0  0  0  0
    7.3773    8.8224   21.4870 C   0  0  0  0  0  0  0  0  0  0  0  0
    8.4391    6.6439   21.0235 C   0  0  0  0  0  0  0  0  0  0  0  0
    9.6494   11.1353   20.4167 C   0  0  0  0  0  0  0  0  0  0  0  0
    8.1431    7.6829   21.9046 C   0  0  0  0  0  0  0  0  0  0  0  0
    7.7796   10.1314   21.5115 N   0  0  0  0  0  0  0  0  0  0  0  0
    9.2768    5.6183   21.4437 C   0  0  0  0  0  0  0  0  0  0  0  0
    8.6315    7.7322   23.1768 C   0  0  0  0  0  0  0  0  0  0  0  0
   13.0537    9.9821   20.5781 C   0  0  0  0  0  0  0  0  0  0  0  0
   10.3850    4.6575   23.2386 O   0  0  0  0  0  0  0  0  0  0  0  0
    4.2069    6.8450   20.7994 C   0  0  0  0  0  0  0  0  0  0  0  0
    3.0726   10.1043   19.8522 O   0  0  0  0  0  0  0  0  0  0  0  0
    5.5057    7.1196   21.1155 C   0  0  0  0  0  0  0  0  0  0  0  0
    7.0367   11.0229   21.9948 O   0  0  0  0  0  0  0  0  0  0  0  0
  1  8  4  0
  1 12  4  0
  2  9  1  0
  2 11  4  0
  2 25  4  0
  3 12  4  0
  3 14  1  0
  3 23  4  0
  4 13  4  0
  4 21  4  0
  4 24  1  0
  5  8  4  0
  5 23  4  0
  6 18  2  0
  7 15  4  0
  7 16  1  0
  7 27  4  0
  8 18  1  0
 10 18  1  0
 10 20  1  0
 11 15  4  0
 11 26  1  0
 13 22  4  0
 16 19  1  0
 16 20  2  0
 17 19  4  0
 17 21  4  0
 19 22  4  0
 20 28  1  0
 25 27  4  0
M  END
$$$$

 Created by Python create_sdf_string function

 28 30  0  0  0  0  0  0  0  0999 V2000
   11.4592   11.2893   18.7941 C   0  0  0  0  0  0  0  0  0  0  0  0
    3.4202    7.9009   20.3866 C   0  0  0  0  0  0  0  0  0  0  0  0
   13.5280   10.3522   19.3586 C   0  0  0  0  0  0  0  0  0  0  0  0
    9.6923    5.6468   22.7891 C   0  0  0  0  0  0  0  0  0  0  0  0
   11.7756   10.2554   20.8841 N   0  0  0  0  0  0  0  0  0  0  0  0
    8.9876   11.9370   19.8757 O   0  0  0  0  0  0  0  0  0  0  0  0
    6.0167    8.4478   21.1089 C   0  0  0  0  0  0  0  0  0  0  0  0
   11.0002   10.8890   20.0262 C   0  0  0  0  0  0  0  0  0  0  0  0
    2.1721    7.7393   20.0315 O   0  0  0  0  0  0  0  0  0  0  0  0
    9.1107   10.3880   21.3769 N   0  0  0  0  0  0  0  0  0  0  0  0
    3.9102    9.2008   20.3124 C   0  0  0  0  0  0  0  0  0  0  0  0
   12.7292   10.9960   18.4597 C   0  0  0  0  0  0  0  0  0  0  0  0
    9.3798    6.6793   23.6625 C   0  0  0  0  0  0  0  0  0  0  0  0
   14.7425   10.0739   19.0802 O   0  0  0  0  0  0  0  0  0  0  0  0
    5.1894    9.4673   20.7118 C   0  0  0  0  0  0  0  0  0  0  0  0
    7.3773    8.8224   21.4870 C   0  0  0  0  0  0  0  0  0  0  0  0
    8.4391    6.6439   21.0235 C   0  0  0  0  0  0  0  0  0  0  0  0
    9.6494   11.1353   20.4167 C   0  0  0  0  0  0  0  0  0  0  0  0
    8.1431    7.6829   21.9046 C   0  0  0  0  0  0  0  0  0  0  0  0
    7.7796   10.1314   21.5115 N   0  0  0  0  0  0  0  0  0  0  0  0
    9.2768    5.6183   21.4437 C   0  0  0  0  0  0  0  0  0  0  0  0
    8.6315    7.7322   23.1768 C   0  0  0  0  0  0  0  0  0  0  0  0
   13.0537    9.9821   20.5781 C   0  0  0  0  0  0  0  0  0  0  0  0
   10.3850    4.6575   23.2386 O   0  0  0  0  0  0  0  0  0  0  0  0
    4.2069    6.8450   20.7994 C   0  0  0  0  0  0  0  0  0  0  0  0
    3.0726   10.1043   19.8522 O   0  0  0  0  0  0  0  0  0  0  0  0
    5.5057    7.1196   21.1155 C   0  0  0  0  0  0  0  0  0  0  0  0
    7.0367   11.0229   21.9948 O   0  0  0  0  0  0  0  0  0  0  0  0
  1  8  4  0
  1 12  4  0
  2  9  1  0
  2 11  4  0
  2 25  4  0
  3 12  4  0
  3 14  1  0
  3 23  4  0
  4 13  4  0
  4 21  4  0
  4 24  1  0
  5  8  4  0
  5 23  4  0
  6 18  2  0
  7 15  4  0
  7 16  1  0
  7 27  4  0
  8 18  1  0
 10 18  1  0
 10 20  1  0
 11 15  4  0
 11 26  1  0
 13 22  4  0
 16 19  1  0
 16 20  2  0
 17 19  4  0
 17 21  4  0
 19 22  4  0
 20 28  1  0
 25 27  4  0
M  END
$$$$

 Created by Python create_sdf_string function

 28 30  0  0  0  0  0  0  0  0999 V2000
   11.4592   11.2893   18.7941 C   0  0  0  0  0  0  0  0  0  0  0  0
    3.4202    7.9009   20.3866 C   0  0  0  0  0  0  0  0  0  0  0  0
   13.5280   10.3522   19.3586 C   0  0  0  0  0  0  0  0  0  0  0  0
    9.6923    5.6468   22.7891 C   0  0  0  0  0  0  0  0  0  0  0  0
   11.7756   10.2554   20.8841 N   0  0  0  0  0  0  0  0  0  0  0  0
    8.9876   11.9370   19.8757 O   0  0  0  0  0  0  0  0  0  0  0  0
    6.0167    8.4478   21.1089 C   0  0  0  0  0  0  0  0  0  0  0  0
   11.0002   10.8890   20.0262 C   0  0  0  0  0  0  0  0  0  0  0  0
    2.1721    7.7393   20.0315 O   0  0  0  0  0  0  0  0  0  0  0  0
    9.1107   10.3880   21.3769 N   0  0  0  0  0  0  0  0  0  0  0  0
    3.9102    9.2008   20.3124 C   0  0  0  0  0  0  0  0  0  0  0  0
   12.7292   10.9960   18.4597 C   0  0  0  0  0  0  0  0  0  0  0  0
    9.3798    6.6793   23.6625 C   0  0  0  0  0  0  0  0  0  0  0  0
   14.7425   10.0739   19.0802 O   0  0  0  0  0  0  0  0  0  0  0  0
    5.1894    9.4673   20.7118 C   0  0  0  0  0  0  0  0  0  0  0  0
    7.3773    8.8224   21.4870 C   0  0  0  0  0  0  0  0  0  0  0  0
    8.4391    6.6439   21.0235 C   0  0  0  0  0  0  0  0  0  0  0  0
    9.6494   11.1353   20.4167 C   0  0  0  0  0  0  0  0  0  0  0  0
    8.1431    7.6829   21.9046 C   0  0  0  0  0  0  0  0  0  0  0  0
    7.7796   10.1314   21.5115 N   0  0  0  0  0  0  0  0  0  0  0  0
    9.2768    5.6183   21.4437 C   0  0  0  0  0  0  0  0  0  0  0  0
    8.6315    7.7322   23.1768 C   0  0  0  0  0  0  0  0  0  0  0  0
   13.0537    9.9821   20.5781 C   0  0  0  0  0  0  0  0  0  0  0  0
   10.3850    4.6575   23.2386 O   0  0  0  0  0  0  0  0  0  0  0  0
    4.2069    6.8450   20.7994 C   0  0  0  0  0  0  0  0  0  0  0  0
    3.0726   10.1043   19.8522 O   0  0  0  0  0  0  0  0  0  0  0  0
    5.5057    7.1196   21.1155 C   0  0  0  0  0  0  0  0  0  0  0  0
    7.0367   11.0229   21.9948 O   0  0  0  0  0  0  0  0  0  0  0  0
  1  8  4  0
  1 12  4  0
  2  9  1  0
  2 11  4  0
  2 25  4  0
  3 12  4  0
  3 14  1  0
  3 23  4  0
  4 13  4  0
  4 21  4  0
  4 24  1  0
  5  8  4  0
  5 23  4  0
  6 18  2  0
  7 15  4  0
  7 16  1  0
  7 27  4  0
  8 18  1  0
 10 18  1  0
 10 20  1  0
 11 15  4  0
 11 26  1  0
 13 22  4  0
 16 19  1  0
 16 20  2  0
 17 19  4  0
 17 21  4  0
 19 22  4  0
 20 28  1  0
 25 27  4  0
M  END
$$$$

 Created by Python create_sdf_string function

 28 30  0  0  0  0  0  0  0  0999 V2000
   11.4592   11.2893   18.7941 C   0  0  0  0  0  0  0  0  0  0  0  0
    3.4202    7.9009   20.3866 C   0  0  0  0  0  0  0  0  0  0  0  0
   13.5280   10.3522   19.3586 C   0  0  0  0  0  0  0  0  0  0  0  0
    9.6923    5.6468   22.7891 C   0  0  0  0  0  0  0  0  0  0  0  0
   11.7756   10.2554   20.8841 N   0  0  0  0  0  0  0  0  0  0  0  0
    8.9876   11.9370   19.8757 O   0  0  0  0  0  0  0  0  0  0  0  0
    6.0167    8.4478   21.1089 C   0  0  0  0  0  0  0  0  0  0  0  0
   11.0002   10.8890   20.0262 C   0  0  0  0  0  0  0  0  0  0  0  0
    2.1721    7.7393   20.0315 O   0  0  0  0  0  0  0  0  0  0  0  0
    9.1107   10.3880   21.3769 N   0  0  0  0  0  0  0  0  0  0  0  0
    3.9102    9.2008   20.3124 C   0  0  0  0  0  0  0  0  0  0  0  0
   12.7292   10.9960   18.4597 C   0  0  0  0  0  0  0  0  0  0  0  0
    9.3798    6.6793   23.6625 C   0  0  0  0  0  0  0  0  0  0  0  0
   14.7425   10.0739   19.0802 O   0  0  0  0  0  0  0  0  0  0  0  0
    5.1894    9.4673   20.7118 C   0  0  0  0  0  0  0  0  0  0  0  0
    7.3773    8.8224   21.4870 C   0  0  0  0  0  0  0  0  0  0  0  0
    8.4391    6.6439   21.0235 C   0  0  0  0  0  0  0  0  0  0  0  0
    9.6494   11.1353   20.4167 C   0  0  0  0  0  0  0  0  0  0  0  0
    8.1431    7.6829   21.9046 C   0  0  0  0  0  0  0  0  0  0  0  0
    7.7796   10.1314   21.5115 N   0  0  0  0  0  0  0  0  0  0  0  0
    9.2768    5.6183   21.4437 C   0  0  0  0  0  0  0  0  0  0  0  0
    8.6315    7.7322   23.1768 C   0  0  0  0  0  0  0  0  0  0  0  0
   13.0537    9.9821   20.5781 C   0  0  0  0  0  0  0  0  0  0  0  0
   10.3850    4.6575   23.2386 O   0  0  0  0  0  0  0  0  0  0  0  0
    4.2069    6.8450   20.7994 C   0  0  0  0  0  0  0  0  0  0  0  0
    3.0726   10.1043   19.8522 O   0  0  0  0  0  0  0  0  0  0  0  0
    5.5057    7.1196   21.1155 C   0  0  0  0  0  0  0  0  0  0  0  0
    7.0367   11.0229   21.9948 O   0  0  0  0  0  0  0  0  0  0  0  0
  1  8  4  0
  1 12  4  0
  2  9  1  0
  2 11  4  0
  2 25  4  0
  3 12  4  0
  3 14  1  0
  3 23  4  0
  4 13  4  0
  4 21  4  0
  4 24  1  0
  5  8  4  0
  5 23  4  0
  6 18  2  0
  7 15  4  0
  7 16  1  0
  7 27  4  0
  8 18  1  0
 10 18  1  0
 10 20  1  0
 11 15  4  0
 11 26  1  0
 13 22  4  0
 16 19  1  0
 16 20  2  0
 17 19  4  0
 17 21  4  0
 19 22  4  0
 20 28  1  0
 25 27  4  0
M  END
$$$$

 Created by Python create_sdf_string function

 28 30  0  0  0  0  0  0  0  0999 V2000
   11.4592   11.2893   18.7941 C   0  0  0  0  0  0  0  0  0  0  0  0
    3.4202    7.9009   20.3866 C   0  0  0  0  0  0  0  0  0  0  0  0
   13.5280   10.3522   19.3586 C   0  0  0  0  0  0  0  0  0  0  0  0
    9.6923    5.6468   22.7891 C   0  0  0  0  0  0  0  0  0  0  0  0
   11.7756   10.2554   20.8841 N   0  0  0  0  0  0  0  0  0  0  0  0
    8.9876   11.9370   19.8757 O   0  0  0  0  0  0  0  0  0  0  0  0
    6.0167    8.4478   21.1089 C   0  0  0  0  0  0  0  0  0  0  0  0
   11.0002   10.8890   20.0262 C   0  0  0  0  0  0  0  0  0  0  0  0
    2.1721    7.7393   20.0315 O   0  0  0  0  0  0  0  0  0  0  0  0
    9.1107   10.3880   21.3769 N   0  0  0  0  0  0  0  0  0  0  0  0
    3.9102    9.2008   20.3124 C   0  0  0  0  0  0  0  0  0  0  0  0
   12.7292   10.9960   18.4597 C   0  0  0  0  0  0  0  0  0  0  0  0
    9.3798    6.6793   23.6625 C   0  0  0  0  0  0  0  0  0  0  0  0
   14.7425   10.0739   19.0802 O   0  0  0  0  0  0  0  0  0  0  0  0
    5.1894    9.4673   20.7118 C   0  0  0  0  0  0  0  0  0  0  0  0
    7.3773    8.8224   21.4870 C   0  0  0  0  0  0  0  0  0  0  0  0
    8.4391    6.6439   21.0235 C   0  0  0  0  0  0  0  0  0  0  0  0
    9.6494   11.1353   20.4167 C   0  0  0  0  0  0  0  0  0  0  0  0
    8.1431    7.6829   21.9046 C   0  0  0  0  0  0  0  0  0  0  0  0
    7.7796   10.1314   21.5115 N   0  0  0  0  0  0  0  0  0  0  0  0
    9.2768    5.6183   21.4437 C   0  0  0  0  0  0  0  0  0  0  0  0
    8.6315    7.7322   23.1768 C   0  0  0  0  0  0  0  0  0  0  0  0
   13.0537    9.9821   20.5781 C   0  0  0  0  0  0  0  0  0  0  0  0
   10.3850    4.6575   23.2386 O   0  0  0  0  0  0  0  0  0  0  0  0
    4.2069    6.8450   20.7994 C   0  0  0  0  0  0  0  0  0  0  0  0
    3.0726   10.1043   19.8522 O   0  0  0  0  0  0  0  0  0  0  0  0
    5.5057    7.1196   21.1155 C   0  0  0  0  0  0  0  0  0  0  0  0
    7.0367   11.0229   21.9948 O   0  0  0  0  0  0  0  0  0  0  0  0
  1  8  4  0
  1 12  4  0
  2  9  1  0
  2 11  4  0
  2 25  4  0
  3 12  4  0
  3 14  1  0
  3 23  4  0
  4 13  4  0
  4 21  4  0
  4 24  1  0
  5  8  4  0
  5 23  4  0
  6 18  2  0
  7 15  4  0
  7 16  1  0
  7 27  4  0
  8 18  1  0
 10 18  1  0
 10 20  1  0
 11 15  4  0
 11 26  1  0
 13 22  4  0
 16 19  1  0
 16 20  2  0
 17 19  4  0
 17 21  4  0
 19 22  4  0
 20 28  1  0
 25 27  4  0
M  END
$$$$

 Created by Python create_sdf_string function

 28 30  0  0  0  0  0  0  0  0999 V2000
   11.4592   11.2893   18.7941 C   0  0  0  0  0  0  0  0  0  0  0  0
    3.4202    7.9009   20.3866 C   0  0  0  0  0  0  0  0  0  0  0  0
   13.5280   10.3522   19.3586 C   0  0  0  0  0  0  0  0  0  0  0  0
    9.6923    5.6468   22.7891 C   0  0  0  0  0  0  0  0  0  0  0  0
   11.7756   10.2554   20.8841 N   0  0  0  0  0  0  0  0  0  0  0  0
    8.9876   11.9370   19.8757 O   0  0  0  0  0  0  0  0  0  0  0  0
    6.0167    8.4478   21.1089 C   0  0  0  0  0  0  0  0  0  0  0  0
   11.0002   10.8890   20.0262 C   0  0  0  0  0  0  0  0  0  0  0  0
    2.1721    7.7393   20.0315 O   0  0  0  0  0  0  0  0  0  0  0  0
    9.1107   10.3880   21.3769 N   0  0  0  0  0  0  0  0  0  0  0  0
    3.9102    9.2008   20.3124 C   0  0  0  0  0  0  0  0  0  0  0  0
   12.7292   10.9960   18.4597 C   0  0  0  0  0  0  0  0  0  0  0  0
    9.3798    6.6793   23.6625 C   0  0  0  0  0  0  0  0  0  0  0  0
   14.7425   10.0739   19.0802 O   0  0  0  0  0  0  0  0  0  0  0  0
    5.1894    9.4673   20.7118 C   0  0  0  0  0  0  0  0  0  0  0  0
    7.3773    8.8224   21.4870 C   0  0  0  0  0  0  0  0  0  0  0  0
    8.4391    6.6439   21.0235 C   0  0  0  0  0  0  0  0  0  0  0  0
    9.6494   11.1353   20.4167 C   0  0  0  0  0  0  0  0  0  0  0  0
    8.1431    7.6829   21.9046 C   0  0  0  0  0  0  0  0  0  0  0  0
    7.7796   10.1314   21.5115 N   0  0  0  0  0  0  0  0  0  0  0  0
    9.2768    5.6183   21.4437 C   0  0  0  0  0  0  0  0  0  0  0  0
    8.6315    7.7322   23.1768 C   0  0  0  0  0  0  0  0  0  0  0  0
   13.0537    9.9821   20.5781 C   0  0  0  0  0  0  0  0  0  0  0  0
   10.3850    4.6575   23.2386 O   0  0  0  0  0  0  0  0  0  0  0  0
    4.2069    6.8450   20.7994 C   0  0  0  0  0  0  0  0  0  0  0  0
    3.0726   10.1043   19.8522 O   0  0  0  0  0  0  0  0  0  0  0  0
    5.5057    7.1196   21.1155 C   0  0  0  0  0  0  0  0  0  0  0  0
    7.0367   11.0229   21.9948 O   0  0  0  0  0  0  0  0  0  0  0  0
  1  8  4  0
  1 12  4  0
  2  9  1  0
  2 11  4  0
  2 25  4  0
  3 12  4  0
  3 14  1  0
  3 23  4  0
  4 13  4  0
  4 21  4  0
  4 24  1  0
  5  8  4  0
  5 23  4  0
  6 18  2  0
  7 15  4  0
  7 16  1  0
  7 27  4  0
  8 18  1  0
 10 18  1  0
 10 20  1  0
 11 15  4  0
 11 26  1  0
 13 22  4  0
 16 19  1  0
 16 20  2  0
 17 19  4  0
 17 21  4  0
 19 22  4  0
 20 28  1  0
 25 27  4  0
M  END
$$$$

 Created by Python create_sdf_string function

 28 30  0  0  0  0  0  0  0  0999 V2000
   11.4592   11.2893   18.7941 C   0  0  0  0  0  0  0  0  0  0  0  0
    3.4202    7.9009   20.3866 C   0  0  0  0  0  0  0  0  0  0  0  0
   13.5280   10.3522   19.3586 C   0  0  0  0  0  0  0  0  0  0  0  0
    9.6923    5.6468   22.7891 C   0  0  0  0  0  0  0  0  0  0  0  0
   11.7756   10.2554   20.8841 N   0  0  0  0  0  0  0  0  0  0  0  0
    8.9876   11.9370   19.8757 O   0  0  0  0  0  0  0  0  0  0  0  0
    6.0167    8.4478   21.1089 C   0  0  0  0  0  0  0  0  0  0  0  0
   11.0002   10.8890   20.0262 C   0  0  0  0  0  0  0  0  0  0  0  0
    2.1721    7.7393   20.0315 O   0  0  0  0  0  0  0  0  0  0  0  0
    9.1107   10.3880   21.3769 N   0  0  0  0  0  0  0  0  0  0  0  0
    3.9102    9.2008   20.3124 C   0  0  0  0  0  0  0  0  0  0  0  0
   12.7292   10.9960   18.4597 C   0  0  0  0  0  0  0  0  0  0  0  0
    9.3798    6.6793   23.6625 C   0  0  0  0  0  0  0  0  0  0  0  0
   14.7425   10.0739   19.0802 O   0  0  0  0  0  0  0  0  0  0  0  0
    5.1894    9.4673   20.7118 C   0  0  0  0  0  0  0  0  0  0  0  0
    7.3773    8.8224   21.4870 C   0  0  0  0  0  0  0  0  0  0  0  0
    8.4391    6.6439   21.0235 C   0  0  0  0  0  0  0  0  0  0  0  0
    9.6494   11.1353   20.4167 C   0  0  0  0  0  0  0  0  0  0  0  0
    8.1431    7.6829   21.9046 C   0  0  0  0  0  0  0  0  0  0  0  0
    7.7796   10.1314   21.5115 N   0  0  0  0  0  0  0  0  0  0  0  0
    9.2768    5.6183   21.4437 C   0  0  0  0  0  0  0  0  0  0  0  0
    8.6315    7.7322   23.1768 C   0  0  0  0  0  0  0  0  0  0  0  0
   13.0537    9.9821   20.5781 C   0  0  0  0  0  0  0  0  0  0  0  0
   10.3850    4.6575   23.2386 O   0  0  0  0  0  0  0  0  0  0  0  0
    4.2069    6.8450   20.7994 C   0  0  0  0  0  0  0  0  0  0  0  0
    3.0726   10.1043   19.8522 O   0  0  0  0  0  0  0  0  0  0  0  0
    5.5057    7.1196   21.1155 C   0  0  0  0  0  0  0  0  0  0  0  0
    7.0367   11.0229   21.9948 O   0  0  0  0  0  0  0  0  0  0  0  0
  1  8  4  0
  1 12  4  0
  2  9  1  0
  2 11  4  0
  2 25  4  0
  3 12  4  0
  3 14  1  0
  3 23  4  0
  4 13  4  0
  4 21  4  0
  4 24  1  0
  5  8  4  0
  5 23  4  0
  6 18  2  0
  7 15  4  0
  7 16  1  0
  7 27  4  0
  8 18  1  0
 10 18  1  0
 10 20  1  0
 11 15  4  0
 11 26  1  0
 13 22  4  0
 16 19  1  0
 16 20  2  0
 17 19  4  0
 17 21  4  0
 19 22  4  0
 20 28  1  0
 25 27  4  0
M  END
$$$$

 Created by Python create_sdf_string function

 28 30  0  0  0  0  0  0  0  0999 V2000
   11.4592   11.2893   18.7941 C   0  0  0  0  0  0  0  0  0  0  0  0
    3.4202    7.9009   20.3866 C   0  0  0  0  0  0  0  0  0  0  0  0
   13.5280   10.3522   19.3586 C   0  0  0  0  0  0  0  0  0  0  0  0
    9.6923    5.6468   22.7891 C   0  0  0  0  0  0  0  0  0  0  0  0
   11.7756   10.2554   20.8841 N   0  0  0  0  0  0  0  0  0  0  0  0
    8.9876   11.9370   19.8757 O   0  0  0  0  0  0  0  0  0  0  0  0
    6.0167    8.4478   21.1089 C   0  0  0  0  0  0  0  0  0  0  0  0
   11.0002   10.8890   20.0262 C   0  0  0  0  0  0  0  0  0  0  0  0
    2.1721    7.7393   20.0315 O   0  0  0  0  0  0  0  0  0  0  0  0
    9.1107   10.3880   21.3769 N   0  0  0  0  0  0  0  0  0  0  0  0
    3.9102    9.2008   20.3124 C   0  0  0  0  0  0  0  0  0  0  0  0
   12.7292   10.9960   18.4597 C   0  0  0  0  0  0  0  0  0  0  0  0
    9.3798    6.6793   23.6625 C   0  0  0  0  0  0  0  0  0  0  0  0
   14.7425   10.0739   19.0802 O   0  0  0  0  0  0  0  0  0  0  0  0
    5.1894    9.4673   20.7118 C   0  0  0  0  0  0  0  0  0  0  0  0
    7.3773    8.8224   21.4870 C   0  0  0  0  0  0  0  0  0  0  0  0
    8.4391    6.6439   21.0235 C   0  0  0  0  0  0  0  0  0  0  0  0
    9.6494   11.1353   20.4167 C   0  0  0  0  0  0  0  0  0  0  0  0
    8.1431    7.6829   21.9046 C   0  0  0  0  0  0  0  0  0  0  0  0
    7.7796   10.1314   21.5115 N   0  0  0  0  0  0  0  0  0  0  0  0
    9.2768    5.6183   21.4437 C   0  0  0  0  0  0  0  0  0  0  0  0
    8.6315    7.7322   23.1768 C   0  0  0  0  0  0  0  0  0  0  0  0
   13.0537    9.9821   20.5781 C   0  0  0  0  0  0  0  0  0  0  0  0
   10.3850    4.6575   23.2386 O   0  0  0  0  0  0  0  0  0  0  0  0
    4.2069    6.8450   20.7994 C   0  0  0  0  0  0  0  0  0  0  0  0
    3.0726   10.1043   19.8522 O   0  0  0  0  0  0  0  0  0  0  0  0
    5.5057    7.1196   21.1155 C   0  0  0  0  0  0  0  0  0  0  0  0
    7.0367   11.0229   21.9948 O   0  0  0  0  0  0  0  0  0  0  0  0
  1  8  4  0
  1 12  4  0
  2  9  1  0
  2 11  4  0
  2 25  4  0
  3 12  4  0
  3 14  1  0
  3 23  4  0
  4 13  4  0
  4 21  4  0
  4 24  1  0
  5  8  4  0
  5 23  4  0
  6 18  2  0
  7 15  4  0
  7 16  1  0
  7 27  4  0
  8 18  1  0
 10 18  1  0
 10 20  1  0
 11 15  4  0
 11 26  1  0
 13 22  4  0
 16 19  1  0
 16 20  2  0
 17 19  4  0
 17 21  4  0
 19 22  4  0
 20 28  1  0
 25 27  4  0
M  END
$$$$

 Created by Python create_sdf_string function

 28 30  0  0  0  0  0  0  0  0999 V2000
   11.4592   11.2893   18.7941 C   0  0  0  0  0  0  0  0  0  0  0  0
    3.4202    7.9009   20.3866 C   0  0  0  0  0  0  0  0  0  0  0  0
   13.5280   10.3522   19.3586 C   0  0  0  0  0  0  0  0  0  0  0  0
    9.6923    5.6468   22.7891 C   0  0  0  0  0  0  0  0  0  0  0  0
   11.7756   10.2554   20.8841 N   0  0  0  0  0  0  0  0  0  0  0  0
    8.9876   11.9370   19.8757 O   0  0  0  0  0  0  0  0  0  0  0  0
    6.0167    8.4478   21.1089 C   0  0  0  0  0  0  0  0  0  0  0  0
   11.0002   10.8890   20.0262 C   0  0  0  0  0  0  0  0  0  0  0  0
    2.1721    7.7393   20.0315 O   0  0  0  0  0  0  0  0  0  0  0  0
    9.1107   10.3880   21.3769 N   0  0  0  0  0  0  0  0  0  0  0  0
    3.9102    9.2008   20.3124 C   0  0  0  0  0  0  0  0  0  0  0  0
   12.7292   10.9960   18.4597 C   0  0  0  0  0  0  0  0  0  0  0  0
    9.3798    6.6793   23.6625 C   0  0  0  0  0  0  0  0  0  0  0  0
   14.7425   10.0739   19.0802 O   0  0  0  0  0  0  0  0  0  0  0  0
    5.1894    9.4673   20.7118 C   0  0  0  0  0  0  0  0  0  0  0  0
    7.3773    8.8224   21.4870 C   0  0  0  0  0  0  0  0  0  0  0  0
    8.4391    6.6439   21.0235 C   0  0  0  0  0  0  0  0  0  0  0  0
    9.6494   11.1353   20.4167 C   0  0  0  0  0  0  0  0  0  0  0  0
    8.1431    7.6829   21.9046 C   0  0  0  0  0  0  0  0  0  0  0  0
    7.7796   10.1314   21.5115 N   0  0  0  0  0  0  0  0  0  0  0  0
    9.2768    5.6183   21.4437 C   0  0  0  0  0  0  0  0  0  0  0  0
    8.6315    7.7322   23.1768 C   0  0  0  0  0  0  0  0  0  0  0  0
   13.0537    9.9821   20.5781 C   0  0  0  0  0  0  0  0  0  0  0  0
   10.3850    4.6575   23.2386 O   0  0  0  0  0  0  0  0  0  0  0  0
    4.2069    6.8450   20.7994 C   0  0  0  0  0  0  0  0  0  0  0  0
    3.0726   10.1043   19.8522 O   0  0  0  0  0  0  0  0  0  0  0  0
    5.5057    7.1196   21.1155 C   0  0  0  0  0  0  0  0  0  0  0  0
    7.0367   11.0229   21.9948 O   0  0  0  0  0  0  0  0  0  0  0  0
  1  8  4  0
  1 12  4  0
  2  9  1  0
  2 11  4  0
  2 25  4  0
  3 12  4  0
  3 14  1  0
  3 23  4  0
  4 13  4  0
  4 21  4  0
  4 24  1  0
  5  8  4  0
  5 23  4  0
  6 18  2  0
  7 15  4  0
  7 16  1  0
  7 27  4  0
  8 18  1  0
 10 18  1  0
 10 20  1  0
 11 15  4  0
 11 26  1  0
 13 22  4  0
 16 19  1  0
 16 20  2  0
 17 19  4  0
 17 21  4  0
 19 22  4  0
 20 28  1  0
 25 27  4  0
M  END
$$$$

 Created by Python create_sdf_string function

 28 30  0  0  0  0  0  0  0  0999 V2000
   11.4592   11.2893   18.7941 C   0  0  0  0  0  0  0  0  0  0  0  0
    3.4202    7.9009   20.3866 C   0  0  0  0  0  0  0  0  0  0  0  0
   13.5280   10.3522   19.3586 C   0  0  0  0  0  0  0  0  0  0  0  0
    9.6923    5.6468   22.7891 C   0  0  0  0  0  0  0  0  0  0  0  0
   11.7756   10.2554   20.8841 N   0  0  0  0  0  0  0  0  0  0  0  0
    8.9876   11.9370   19.8757 O   0  0  0  0  0  0  0  0  0  0  0  0
    6.0167    8.4478   21.1089 C   0  0  0  0  0  0  0  0  0  0  0  0
   11.0002   10.8890   20.0262 C   0  0  0  0  0  0  0  0  0  0  0  0
    2.1721    7.7393   20.0315 O   0  0  0  0  0  0  0  0  0  0  0  0
    9.1107   10.3880   21.3769 N   0  0  0  0  0  0  0  0  0  0  0  0
    3.9102    9.2008   20.3124 C   0  0  0  0  0  0  0  0  0  0  0  0
   12.7292   10.9960   18.4597 C   0  0  0  0  0  0  0  0  0  0  0  0
    9.3798    6.6793   23.6625 C   0  0  0  0  0  0  0  0  0  0  0  0
   14.7425   10.0739   19.0802 O   0  0  0  0  0  0  0  0  0  0  0  0
    5.1894    9.4673   20.7118 C   0  0  0  0  0  0  0  0  0  0  0  0
    7.3773    8.8224   21.4870 C   0  0  0  0  0  0  0  0  0  0  0  0
    8.4391    6.6439   21.0235 C   0  0  0  0  0  0  0  0  0  0  0  0
    9.6494   11.1353   20.4167 C   0  0  0  0  0  0  0  0  0  0  0  0
    8.1431    7.6829   21.9046 C   0  0  0  0  0  0  0  0  0  0  0  0
    7.7796   10.1314   21.5115 N   0  0  0  0  0  0  0  0  0  0  0  0
    9.2768    5.6183   21.4437 C   0  0  0  0  0  0  0  0  0  0  0  0
    8.6315    7.7322   23.1768 C   0  0  0  0  0  0  0  0  0  0  0  0
   13.0537    9.9821   20.5781 C   0  0  0  0  0  0  0  0  0  0  0  0
   10.3850    4.6575   23.2386 O   0  0  0  0  0  0  0  0  0  0  0  0
    4.2069    6.8450   20.7994 C   0  0  0  0  0  0  0  0  0  0  0  0
    3.0726   10.1043   19.8522 O   0  0  0  0  0  0  0  0  0  0  0  0
    5.5057    7.1196   21.1155 C   0  0  0  0  0  0  0  0  0  0  0  0
    7.0367   11.0229   21.9948 O   0  0  0  0  0  0  0  0  0  0  0  0
  1  8  4  0
  1 12  4  0
  2  9  1  0
  2 11  4  0
  2 25  4  0
  3 12  4  0
  3 14  1  0
  3 23  4  0
  4 13  4  0
  4 21  4  0
  4 24  1  0
  5  8  4  0
  5 23  4  0
  6 18  2  0
  7 15  4  0
  7 16  1  0
  7 27  4  0
  8 18  1  0
 10 18  1  0
 10 20  1  0
 11 15  4  0
 11 26  1  0
 13 22  4  0
 16 19  1  0
 16 20  2  0
 17 19  4  0
 17 21  4  0
 19 22  4  0
 20 28  1  0
 25 27  4  0
M  END
$$$$

 Created by Python create_sdf_string function

 28 30  0  0  0  0  0  0  0  0999 V2000
   11.4592   11.2893   18.7941 C   0  0  0  0  0  0  0  0  0  0  0  0
    3.4202    7.9009   20.3866 C   0  0  0  0  0  0  0  0  0  0  0  0
   13.5280   10.3522   19.3586 C   0  0  0  0  0  0  0  0  0  0  0  0
    9.6923    5.6468   22.7891 C   0  0  0  0  0  0  0  0  0  0  0  0
   11.7756   10.2554   20.8841 N   0  0  0  0  0  0  0  0  0  0  0  0
    8.9876   11.9370   19.8757 O   0  0  0  0  0  0  0  0  0  0  0  0
    6.0167    8.4478   21.1089 C   0  0  0  0  0  0  0  0  0  0  0  0
   11.0002   10.8890   20.0262 C   0  0  0  0  0  0  0  0  0  0  0  0
    2.1721    7.7393   20.0315 O   0  0  0  0  0  0  0  0  0  0  0  0
    9.1107   10.3880   21.3769 N   0  0  0  0  0  0  0  0  0  0  0  0
    3.9102    9.2008   20.3124 C   0  0  0  0  0  0  0  0  0  0  0  0
   12.7292   10.9960   18.4597 C   0  0  0  0  0  0  0  0  0  0  0  0
    9.3798    6.6793   23.6625 C   0  0  0  0  0  0  0  0  0  0  0  0
   14.7425   10.0739   19.0802 O   0  0  0  0  0  0  0  0  0  0  0  0
    5.1894    9.4673   20.7118 C   0  0  0  0  0  0  0  0  0  0  0  0
    7.3773    8.8224   21.4870 C   0  0  0  0  0  0  0  0  0  0  0  0
    8.4391    6.6439   21.0235 C   0  0  0  0  0  0  0  0  0  0  0  0
    9.6494   11.1353   20.4167 C   0  0  0  0  0  0  0  0  0  0  0  0
    8.1431    7.6829   21.9046 C   0  0  0  0  0  0  0  0  0  0  0  0
    7.7796   10.1314   21.5115 N   0  0  0  0  0  0  0  0  0  0  0  0
    9.2768    5.6183   21.4437 C   0  0  0  0  0  0  0  0  0  0  0  0
    8.6315    7.7322   23.1768 C   0  0  0  0  0  0  0  0  0  0  0  0
   13.0537    9.9821   20.5781 C   0  0  0  0  0  0  0  0  0  0  0  0
   10.3850    4.6575   23.2386 O   0  0  0  0  0  0  0  0  0  0  0  0
    4.2069    6.8450   20.7994 C   0  0  0  0  0  0  0  0  0  0  0  0
    3.0726   10.1043   19.8522 O   0  0  0  0  0  0  0  0  0  0  0  0
    5.5057    7.1196   21.1155 C   0  0  0  0  0  0  0  0  0  0  0  0
    7.0367   11.0229   21.9948 O   0  0  0  0  0  0  0  0  0  0  0  0
  1  8  4  0
  1 12  4  0
  2  9  1  0
  2 11  4  0
  2 25  4  0
  3 12  4  0
  3 14  1  0
  3 23  4  0
  4 13  4  0
  4 21  4  0
  4 24  1  0
  5  8  4  0
  5 23  4  0
  6 18  2  0
  7 15  4  0
  7 16  1  0
  7 27  4  0
  8 18  1  0
 10 18  1  0
 10 20  1  0
 11 15  4  0
 11 26  1  0
 13 22  4  0
 16 19  1  0
 16 20  2  0
 17 19  4  0
 17 21  4  0
 19 22  4  0
 20 28  1  0
 25 27  4  0
M  END
$$$$

 Created by Python create_sdf_string function

 28 30  0  0  0  0  0  0  0  0999 V2000
   11.4592   11.2893   18.7941 C   0  0  0  0  0  0  0  0  0  0  0  0
    3.4202    7.9009   20.3866 C   0  0  0  0  0  0  0  0  0  0  0  0
   13.5280   10.3522   19.3586 C   0  0  0  0  0  0  0  0  0  0  0  0
    9.6923    5.6468   22.7891 C   0  0  0  0  0  0  0  0  0  0  0  0
   11.7756   10.2554   20.8841 N   0  0  0  0  0  0  0  0  0  0  0  0
    8.9876   11.9370   19.8757 O   0  0  0  0  0  0  0  0  0  0  0  0
    6.0167    8.4478   21.1089 C   0  0  0  0  0  0  0  0  0  0  0  0
   11.0002   10.8890   20.0262 C   0  0  0  0  0  0  0  0  0  0  0  0
    2.1721    7.7393   20.0315 O   0  0  0  0  0  0  0  0  0  0  0  0
    9.1107   10.3880   21.3769 N   0  0  0  0  0  0  0  0  0  0  0  0
    3.9102    9.2008   20.3124 C   0  0  0  0  0  0  0  0  0  0  0  0
   12.7292   10.9960   18.4597 C   0  0  0  0  0  0  0  0  0  0  0  0
    9.3798    6.6793   23.6625 C   0  0  0  0  0  0  0  0  0  0  0  0
   14.7425   10.0739   19.0802 O   0  0  0  0  0  0  0  0  0  0  0  0
    5.1894    9.4673   20.7118 C   0  0  0  0  0  0  0  0  0  0  0  0
    7.3773    8.8224   21.4870 C   0  0  0  0  0  0  0  0  0  0  0  0
    8.4391    6.6439   21.0235 C   0  0  0  0  0  0  0  0  0  0  0  0
    9.6494   11.1353   20.4167 C   0  0  0  0  0  0  0  0  0  0  0  0
    8.1431    7.6829   21.9046 C   0  0  0  0  0  0  0  0  0  0  0  0
    7.7796   10.1314   21.5115 N   0  0  0  0  0  0  0  0  0  0  0  0
    9.2768    5.6183   21.4437 C   0  0  0  0  0  0  0  0  0  0  0  0
    8.6315    7.7322   23.1768 C   0  0  0  0  0  0  0  0  0  0  0  0
   13.0537    9.9821   20.5781 C   0  0  0  0  0  0  0  0  0  0  0  0
   10.3850    4.6575   23.2386 O   0  0  0  0  0  0  0  0  0  0  0  0
    4.2069    6.8450   20.7994 C   0  0  0  0  0  0  0  0  0  0  0  0
    3.0726   10.1043   19.8522 O   0  0  0  0  0  0  0  0  0  0  0  0
    5.5057    7.1196   21.1155 C   0  0  0  0  0  0  0  0  0  0  0  0
    7.0367   11.0229   21.9948 O   0  0  0  0  0  0  0  0  0  0  0  0
  1  8  4  0
  1 12  4  0
  2  9  1  0
  2 11  4  0
  2 25  4  0
  3 12  4  0
  3 14  1  0
  3 23  4  0
  4 13  4  0
  4 21  4  0
  4 24  1  0
  5  8  4  0
  5 23  4  0
  6 18  2  0
  7 15  4  0
  7 16  1  0
  7 27  4  0
  8 18  1  0
 10 18  1  0
 10 20  1  0
 11 15  4  0
 11 26  1  0
 13 22  4  0
 16 19  1  0
 16 20  2  0
 17 19  4  0
 17 21  4  0
 19 22  4  0
 20 28  1  0
 25 27  4  0
M  END
$$$$

 Created by Python create_sdf_string function

 28 30  0  0  0  0  0  0  0  0999 V2000
   11.4592   11.2893   18.7941 C   0  0  0  0  0  0  0  0  0  0  0  0
    3.4202    7.9009   20.3866 C   0  0  0  0  0  0  0  0  0  0  0  0
   13.5280   10.3522   19.3586 C   0  0  0  0  0  0  0  0  0  0  0  0
    9.6923    5.6468   22.7891 C   0  0  0  0  0  0  0  0  0  0  0  0
   11.7756   10.2554   20.8841 N   0  0  0  0  0  0  0  0  0  0  0  0
    8.9876   11.9370   19.8757 O   0  0  0  0  0  0  0  0  0  0  0  0
    6.0167    8.4478   21.1089 C   0  0  0  0  0  0  0  0  0  0  0  0
   11.0002   10.8890   20.0262 C   0  0  0  0  0  0  0  0  0  0  0  0
    2.1721    7.7393   20.0315 O   0  0  0  0  0  0  0  0  0  0  0  0
    9.1107   10.3880   21.3769 N   0  0  0  0  0  0  0  0  0  0  0  0
    3.9102    9.2008   20.3124 C   0  0  0  0  0  0  0  0  0  0  0  0
   12.7292   10.9960   18.4597 C   0  0  0  0  0  0  0  0  0  0  0  0
    9.3798    6.6793   23.6625 C   0  0  0  0  0  0  0  0  0  0  0  0
   14.7425   10.0739   19.0802 O   0  0  0  0  0  0  0  0  0  0  0  0
    5.1894    9.4673   20.7118 C   0  0  0  0  0  0  0  0  0  0  0  0
    7.3773    8.8224   21.4870 C   0  0  0  0  0  0  0  0  0  0  0  0
    8.4391    6.6439   21.0235 C   0  0  0  0  0  0  0  0  0  0  0  0
    9.6494   11.1353   20.4167 C   0  0  0  0  0  0  0  0  0  0  0  0
    8.1431    7.6829   21.9046 C   0  0  0  0  0  0  0  0  0  0  0  0
    7.7796   10.1314   21.5115 N   0  0  0  0  0  0  0  0  0  0  0  0
    9.2768    5.6183   21.4437 C   0  0  0  0  0  0  0  0  0  0  0  0
    8.6315    7.7322   23.1768 C   0  0  0  0  0  0  0  0  0  0  0  0
   13.0537    9.9821   20.5781 C   0  0  0  0  0  0  0  0  0  0  0  0
   10.3850    4.6575   23.2386 O   0  0  0  0  0  0  0  0  0  0  0  0
    4.2069    6.8450   20.7994 C   0  0  0  0  0  0  0  0  0  0  0  0
    3.0726   10.1043   19.8522 O   0  0  0  0  0  0  0  0  0  0  0  0
    5.5057    7.1196   21.1155 C   0  0  0  0  0  0  0  0  0  0  0  0
    7.0367   11.0229   21.9948 O   0  0  0  0  0  0  0  0  0  0  0  0
  1  8  4  0
  1 12  4  0
  2  9  1  0
  2 11  4  0
  2 25  4  0
  3 12  4  0
  3 14  1  0
  3 23  4  0
  4 13  4  0
  4 21  4  0
  4 24  1  0
  5  8  4  0
  5 23  4  0
  6 18  2  0
  7 15  4  0
  7 16  1  0
  7 27  4  0
  8 18  1  0
 10 18  1  0
 10 20  1  0
 11 15  4  0
 11 26  1  0
 13 22  4  0
 16 19  1  0
 16 20  2  0
 17 19  4  0
 17 21  4  0
 19 22  4  0
 20 28  1  0
 25 27  4  0
M  END
$$$$

 Created by Python create_sdf_string function

 28 30  0  0  0  0  0  0  0  0999 V2000
   11.4592   11.2893   18.7941 C   0  0  0  0  0  0  0  0  0  0  0  0
    3.4202    7.9009   20.3866 C   0  0  0  0  0  0  0  0  0  0  0  0
   13.5280   10.3522   19.3586 C   0  0  0  0  0  0  0  0  0  0  0  0
    9.6923    5.6468   22.7891 C   0  0  0  0  0  0  0  0  0  0  0  0
   11.7756   10.2554   20.8841 N   0  0  0  0  0  0  0  0  0  0  0  0
    8.9876   11.9370   19.8757 O   0  0  0  0  0  0  0  0  0  0  0  0
    6.0167    8.4478   21.1089 C   0  0  0  0  0  0  0  0  0  0  0  0
   11.0002   10.8890   20.0262 C   0  0  0  0  0  0  0  0  0  0  0  0
    2.1721    7.7393   20.0315 O   0  0  0  0  0  0  0  0  0  0  0  0
    9.1107   10.3880   21.3769 N   0  0  0  0  0  0  0  0  0  0  0  0
    3.9102    9.2008   20.3124 C   0  0  0  0  0  0  0  0  0  0  0  0
   12.7292   10.9960   18.4597 C   0  0  0  0  0  0  0  0  0  0  0  0
    9.3798    6.6793   23.6625 C   0  0  0  0  0  0  0  0  0  0  0  0
   14.7425   10.0739   19.0802 O   0  0  0  0  0  0  0  0  0  0  0  0
    5.1894    9.4673   20.7118 C   0  0  0  0  0  0  0  0  0  0  0  0
    7.3773    8.8224   21.4870 C   0  0  0  0  0  0  0  0  0  0  0  0
    8.4391    6.6439   21.0235 C   0  0  0  0  0  0  0  0  0  0  0  0
    9.6494   11.1353   20.4167 C   0  0  0  0  0  0  0  0  0  0  0  0
    8.1431    7.6829   21.9046 C   0  0  0  0  0  0  0  0  0  0  0  0
    7.7796   10.1314   21.5115 N   0  0  0  0  0  0  0  0  0  0  0  0
    9.2768    5.6183   21.4437 C   0  0  0  0  0  0  0  0  0  0  0  0
    8.6315    7.7322   23.1768 C   0  0  0  0  0  0  0  0  0  0  0  0
   13.0537    9.9821   20.5781 C   0  0  0  0  0  0  0  0  0  0  0  0
   10.3850    4.6575   23.2386 O   0  0  0  0  0  0  0  0  0  0  0  0
    4.2069    6.8450   20.7994 C   0  0  0  0  0  0  0  0  0  0  0  0
    3.0726   10.1043   19.8522 O   0  0  0  0  0  0  0  0  0  0  0  0
    5.5057    7.1196   21.1155 C   0  0  0  0  0  0  0  0  0  0  0  0
    7.0367   11.0229   21.9948 O   0  0  0  0  0  0  0  0  0  0  0  0
  1  8  4  0
  1 12  4  0
  2  9  1  0
  2 11  4  0
  2 25  4  0
  3 12  4  0
  3 14  1  0
  3 23  4  0
  4 13  4  0
  4 21  4  0
  4 24  1  0
  5  8  4  0
  5 23  4  0
  6 18  2  0
  7 15  4  0
  7 16  1  0
  7 27  4  0
  8 18  1  0
 10 18  1  0
 10 20  1  0
 11 15  4  0
 11 26  1  0
 13 22  4  0
 16 19  1  0
 16 20  2  0
 17 19  4  0
 17 21  4  0
 19 22  4  0
 20 28  1  0
 25 27  4  0
M  END
$$$$

 Created by Python create_sdf_string function

 28 30  0  0  0  0  0  0  0  0999 V2000
   11.4592   11.2893   18.7941 C   0  0  0  0  0  0  0  0  0  0  0  0
    3.4202    7.9009   20.3866 C   0  0  0  0  0  0  0  0  0  0  0  0
   13.5280   10.3522   19.3586 C   0  0  0  0  0  0  0  0  0  0  0  0
    9.6923    5.6468   22.7891 C   0  0  0  0  0  0  0  0  0  0  0  0
   11.7756   10.2554   20.8841 N   0  0  0  0  0  0  0  0  0  0  0  0
    8.9876   11.9370   19.8757 O   0  0  0  0  0  0  0  0  0  0  0  0
    6.0167    8.4478   21.1089 C   0  0  0  0  0  0  0  0  0  0  0  0
   11.0002   10.8890   20.0262 C   0  0  0  0  0  0  0  0  0  0  0  0
    2.1721    7.7393   20.0315 O   0  0  0  0  0  0  0  0  0  0  0  0
    9.1107   10.3880   21.3769 N   0  0  0  0  0  0  0  0  0  0  0  0
    3.9102    9.2008   20.3124 C   0  0  0  0  0  0  0  0  0  0  0  0
   12.7292   10.9960   18.4597 C   0  0  0  0  0  0  0  0  0  0  0  0
    9.3798    6.6793   23.6625 C   0  0  0  0  0  0  0  0  0  0  0  0
   14.7425   10.0739   19.0802 O   0  0  0  0  0  0  0  0  0  0  0  0
    5.1894    9.4673   20.7118 C   0  0  0  0  0  0  0  0  0  0  0  0
    7.3773    8.8224   21.4870 C   0  0  0  0  0  0  0  0  0  0  0  0
    8.4391    6.6439   21.0235 C   0  0  0  0  0  0  0  0  0  0  0  0
    9.6494   11.1353   20.4167 C   0  0  0  0  0  0  0  0  0  0  0  0
    8.1431    7.6829   21.9046 C   0  0  0  0  0  0  0  0  0  0  0  0
    7.7796   10.1314   21.5115 N   0  0  0  0  0  0  0  0  0  0  0  0
    9.2768    5.6183   21.4437 C   0  0  0  0  0  0  0  0  0  0  0  0
    8.6315    7.7322   23.1768 C   0  0  0  0  0  0  0  0  0  0  0  0
   13.0537    9.9821   20.5781 C   0  0  0  0  0  0  0  0  0  0  0  0
   10.3850    4.6575   23.2386 O   0  0  0  0  0  0  0  0  0  0  0  0
    4.2069    6.8450   20.7994 C   0  0  0  0  0  0  0  0  0  0  0  0
    3.0726   10.1043   19.8522 O   0  0  0  0  0  0  0  0  0  0  0  0
    5.5057    7.1196   21.1155 C   0  0  0  0  0  0  0  0  0  0  0  0
    7.0367   11.0229   21.9948 O   0  0  0  0  0  0  0  0  0  0  0  0
  1  8  4  0
  1 12  4  0
  2  9  1  0
  2 11  4  0
  2 25  4  0
  3 12  4  0
  3 14  1  0
  3 23  4  0
  4 13  4  0
  4 21  4  0
  4 24  1  0
  5  8  4  0
  5 23  4  0
  6 18  2  0
  7 15  4  0
  7 16  1  0
  7 27  4  0
  8 18  1  0
 10 18  1  0
 10 20  1  0
 11 15  4  0
 11 26  1  0
 13 22  4  0
 16 19  1  0
 16 20  2  0
 17 19  4  0
 17 21  4  0
 19 22  4  0
 20 28  1  0
 25 27  4  0
M  END
$$$$

 Created by Python create_sdf_string function

 28 30  0  0  0  0  0  0  0  0999 V2000
   11.4592   11.2893   18.7941 C   0  0  0  0  0  0  0  0  0  0  0  0
    3.4202    7.9009   20.3866 C   0  0  0  0  0  0  0  0  0  0  0  0
   13.5280   10.3522   19.3586 C   0  0  0  0  0  0  0  0  0  0  0  0
    9.6923    5.6468   22.7891 C   0  0  0  0  0  0  0  0  0  0  0  0
   11.7756   10.2554   20.8841 N   0  0  0  0  0  0  0  0  0  0  0  0
    8.9876   11.9370   19.8757 O   0  0  0  0  0  0  0  0  0  0  0  0
    6.0167    8.4478   21.1089 C   0  0  0  0  0  0  0  0  0  0  0  0
   11.0002   10.8890   20.0262 C   0  0  0  0  0  0  0  0  0  0  0  0
    2.1721    7.7393   20.0315 O   0  0  0  0  0  0  0  0  0  0  0  0
    9.1107   10.3880   21.3769 N   0  0  0  0  0  0  0  0  0  0  0  0
    3.9102    9.2008   20.3124 C   0  0  0  0  0  0  0  0  0  0  0  0
   12.7292   10.9960   18.4597 C   0  0  0  0  0  0  0  0  0  0  0  0
    9.3798    6.6793   23.6625 C   0  0  0  0  0  0  0  0  0  0  0  0
   14.7425   10.0739   19.0802 O   0  0  0  0  0  0  0  0  0  0  0  0
    5.1894    9.4673   20.7118 C   0  0  0  0  0  0  0  0  0  0  0  0
    7.3773    8.8224   21.4870 C   0  0  0  0  0  0  0  0  0  0  0  0
    8.4391    6.6439   21.0235 C   0  0  0  0  0  0  0  0  0  0  0  0
    9.6494   11.1353   20.4167 C   0  0  0  0  0  0  0  0  0  0  0  0
    8.1431    7.6829   21.9046 C   0  0  0  0  0  0  0  0  0  0  0  0
    7.7796   10.1314   21.5115 N   0  0  0  0  0  0  0  0  0  0  0  0
    9.2768    5.6183   21.4437 C   0  0  0  0  0  0  0  0  0  0  0  0
    8.6315    7.7322   23.1768 C   0  0  0  0  0  0  0  0  0  0  0  0
   13.0537    9.9821   20.5781 C   0  0  0  0  0  0  0  0  0  0  0  0
   10.3850    4.6575   23.2386 O   0  0  0  0  0  0  0  0  0  0  0  0
    4.2069    6.8450   20.7994 C   0  0  0  0  0  0  0  0  0  0  0  0
    3.0726   10.1043   19.8522 O   0  0  0  0  0  0  0  0  0  0  0  0
    5.5057    7.1196   21.1155 C   0  0  0  0  0  0  0  0  0  0  0  0
    7.0367   11.0229   21.9948 O   0  0  0  0  0  0  0  0  0  0  0  0
  1  8  4  0
  1 12  4  0
  2  9  1  0
  2 11  4  0
  2 25  4  0
  3 12  4  0
  3 14  1  0
  3 23  4  0
  4 13  4  0
  4 21  4  0
  4 24  1  0
  5  8  4  0
  5 23  4  0
  6 18  2  0
  7 15  4  0
  7 16  1  0
  7 27  4  0
  8 18  1  0
 10 18  1  0
 10 20  1  0
 11 15  4  0
 11 26  1  0
 13 22  4  0
 16 19  1  0
 16 20  2  0
 17 19  4  0
 17 21  4  0
 19 22  4  0
 20 28  1  0
 25 27  4  0
M  END
$$$$

 Created by Python create_sdf_string function

 28 30  0  0  0  0  0  0  0  0999 V2000
   11.4592   11.2893   18.7941 C   0  0  0  0  0  0  0  0  0  0  0  0
    3.4202    7.9009   20.3866 C   0  0  0  0  0  0  0  0  0  0  0  0
   13.5280   10.3522   19.3586 C   0  0  0  0  0  0  0  0  0  0  0  0
    9.6923    5.6468   22.7891 C   0  0  0  0  0  0  0  0  0  0  0  0
   11.7756   10.2554   20.8841 N   0  0  0  0  0  0  0  0  0  0  0  0
    8.9876   11.9370   19.8757 O   0  0  0  0  0  0  0  0  0  0  0  0
    6.0167    8.4478   21.1089 C   0  0  0  0  0  0  0  0  0  0  0  0
   11.0002   10.8890   20.0262 C   0  0  0  0  0  0  0  0  0  0  0  0
    2.1721    7.7393   20.0315 O   0  0  0  0  0  0  0  0  0  0  0  0
    9.1107   10.3880   21.3769 N   0  0  0  0  0  0  0  0  0  0  0  0
    3.9102    9.2008   20.3124 C   0  0  0  0  0  0  0  0  0  0  0  0
   12.7292   10.9960   18.4597 C   0  0  0  0  0  0  0  0  0  0  0  0
    9.3798    6.6793   23.6625 C   0  0  0  0  0  0  0  0  0  0  0  0
   14.7425   10.0739   19.0802 O   0  0  0  0  0  0  0  0  0  0  0  0
    5.1894    9.4673   20.7118 C   0  0  0  0  0  0  0  0  0  0  0  0
    7.3773    8.8224   21.4870 C   0  0  0  0  0  0  0  0  0  0  0  0
    8.4391    6.6439   21.0235 C   0  0  0  0  0  0  0  0  0  0  0  0
    9.6494   11.1353   20.4167 C   0  0  0  0  0  0  0  0  0  0  0  0
    8.1431    7.6829   21.9046 C   0  0  0  0  0  0  0  0  0  0  0  0
    7.7796   10.1314   21.5115 N   0  0  0  0  0  0  0  0  0  0  0  0
    9.2768    5.6183   21.4437 C   0  0  0  0  0  0  0  0  0  0  0  0
    8.6315    7.7322   23.1768 C   0  0  0  0  0  0  0  0  0  0  0  0
   13.0537    9.9821   20.5781 C   0  0  0  0  0  0  0  0  0  0  0  0
   10.3850    4.6575   23.2386 O   0  0  0  0  0  0  0  0  0  0  0  0
    4.2069    6.8450   20.7994 C   0  0  0  0  0  0  0  0  0  0  0  0
    3.0726   10.1043   19.8522 O   0  0  0  0  0  0  0  0  0  0  0  0
    5.5057    7.1196   21.1155 C   0  0  0  0  0  0  0  0  0  0  0  0
    7.0367   11.0229   21.9948 O   0  0  0  0  0  0  0  0  0  0  0  0
  1  8  4  0
  1 12  4  0
  2  9  1  0
  2 11  4  0
  2 25  4  0
  3 12  4  0
  3 14  1  0
  3 23  4  0
  4 13  4  0
  4 21  4  0
  4 24  1  0
  5  8  4  0
  5 23  4  0
  6 18  2  0
  7 15  4  0
  7 16  1  0
  7 27  4  0
  8 18  1  0
 10 18  1  0
 10 20  1  0
 11 15  4  0
 11 26  1  0
 13 22  4  0
 16 19  1  0
 16 20  2  0
 17 19  4  0
 17 21  4  0
 19 22  4  0
 20 28  1  0
 25 27  4  0
M  END
$$$$

 Created by Python create_sdf_string function

 28 30  0  0  0  0  0  0  0  0999 V2000
   11.4592   11.2893   18.7941 C   0  0  0  0  0  0  0  0  0  0  0  0
    3.4202    7.9009   20.3866 C   0  0  0  0  0  0  0  0  0  0  0  0
   13.5280   10.3522   19.3586 C   0  0  0  0  0  0  0  0  0  0  0  0
    9.6923    5.6468   22.7891 C   0  0  0  0  0  0  0  0  0  0  0  0
   11.7756   10.2554   20.8841 N   0  0  0  0  0  0  0  0  0  0  0  0
    8.9876   11.9370   19.8757 O   0  0  0  0  0  0  0  0  0  0  0  0
    6.0167    8.4478   21.1089 C   0  0  0  0  0  0  0  0  0  0  0  0
   11.0002   10.8890   20.0262 C   0  0  0  0  0  0  0  0  0  0  0  0
    2.1721    7.7393   20.0315 O   0  0  0  0  0  0  0  0  0  0  0  0
    9.1107   10.3880   21.3769 N   0  0  0  0  0  0  0  0  0  0  0  0
    3.9102    9.2008   20.3124 C   0  0  0  0  0  0  0  0  0  0  0  0
   12.7292   10.9960   18.4597 C   0  0  0  0  0  0  0  0  0  0  0  0
    9.3798    6.6793   23.6625 C   0  0  0  0  0  0  0  0  0  0  0  0
   14.7425   10.0739   19.0802 O   0  0  0  0  0  0  0  0  0  0  0  0
    5.1894    9.4673   20.7118 C   0  0  0  0  0  0  0  0  0  0  0  0
    7.3773    8.8224   21.4870 C   0  0  0  0  0  0  0  0  0  0  0  0
    8.4391    6.6439   21.0235 C   0  0  0  0  0  0  0  0  0  0  0  0
    9.6494   11.1353   20.4167 C   0  0  0  0  0  0  0  0  0  0  0  0
    8.1431    7.6829   21.9046 C   0  0  0  0  0  0  0  0  0  0  0  0
    7.7796   10.1314   21.5115 N   0  0  0  0  0  0  0  0  0  0  0  0
    9.2768    5.6183   21.4437 C   0  0  0  0  0  0  0  0  0  0  0  0
    8.6315    7.7322   23.1768 C   0  0  0  0  0  0  0  0  0  0  0  0
   13.0537    9.9821   20.5781 C   0  0  0  0  0  0  0  0  0  0  0  0
   10.3850    4.6575   23.2386 O   0  0  0  0  0  0  0  0  0  0  0  0
    4.2069    6.8450   20.7994 C   0  0  0  0  0  0  0  0  0  0  0  0
    3.0726   10.1043   19.8522 O   0  0  0  0  0  0  0  0  0  0  0  0
    5.5057    7.1196   21.1155 C   0  0  0  0  0  0  0  0  0  0  0  0
    7.0367   11.0229   21.9948 O   0  0  0  0  0  0  0  0  0  0  0  0
  1  8  4  0
  1 12  4  0
  2  9  1  0
  2 11  4  0
  2 25  4  0
  3 12  4  0
  3 14  1  0
  3 23  4  0
  4 13  4  0
  4 21  4  0
  4 24  1  0
  5  8  4  0
  5 23  4  0
  6 18  2  0
  7 15  4  0
  7 16  1  0
  7 27  4  0
  8 18  1  0
 10 18  1  0
 10 20  1  0
 11 15  4  0
 11 26  1  0
 13 22  4  0
 16 19  1  0
 16 20  2  0
 17 19  4  0
 17 21  4  0
 19 22  4  0
 20 28  1  0
 25 27  4  0
M  END
$$$$

 Created by Python create_sdf_string function

 28 30  0  0  0  0  0  0  0  0999 V2000
   11.4592   11.2893   18.7941 C   0  0  0  0  0  0  0  0  0  0  0  0
    3.4202    7.9009   20.3866 C   0  0  0  0  0  0  0  0  0  0  0  0
   13.5280   10.3522   19.3586 C   0  0  0  0  0  0  0  0  0  0  0  0
    9.6923    5.6468   22.7891 C   0  0  0  0  0  0  0  0  0  0  0  0
   11.7756   10.2554   20.8841 N   0  0  0  0  0  0  0  0  0  0  0  0
    8.9876   11.9370   19.8757 O   0  0  0  0  0  0  0  0  0  0  0  0
    6.0167    8.4478   21.1089 C   0  0  0  0  0  0  0  0  0  0  0  0
   11.0002   10.8890   20.0262 C   0  0  0  0  0  0  0  0  0  0  0  0
    2.1721    7.7393   20.0315 O   0  0  0  0  0  0  0  0  0  0  0  0
    9.1107   10.3880   21.3769 N   0  0  0  0  0  0  0  0  0  0  0  0
    3.9102    9.2008   20.3124 C   0  0  0  0  0  0  0  0  0  0  0  0
   12.7292   10.9960   18.4597 C   0  0  0  0  0  0  0  0  0  0  0  0
    9.3798    6.6793   23.6625 C   0  0  0  0  0  0  0  0  0  0  0  0
   14.7425   10.0739   19.0802 O   0  0  0  0  0  0  0  0  0  0  0  0
    5.1894    9.4673   20.7118 C   0  0  0  0  0  0  0  0  0  0  0  0
    7.3773    8.8224   21.4870 C   0  0  0  0  0  0  0  0  0  0  0  0
    8.4391    6.6439   21.0235 C   0  0  0  0  0  0  0  0  0  0  0  0
    9.6494   11.1353   20.4167 C   0  0  0  0  0  0  0  0  0  0  0  0
    8.1431    7.6829   21.9046 C   0  0  0  0  0  0  0  0  0  0  0  0
    7.7796   10.1314   21.5115 N   0  0  0  0  0  0  0  0  0  0  0  0
    9.2768    5.6183   21.4437 C   0  0  0  0  0  0  0  0  0  0  0  0
    8.6315    7.7322   23.1768 C   0  0  0  0  0  0  0  0  0  0  0  0
   13.0537    9.9821   20.5781 C   0  0  0  0  0  0  0  0  0  0  0  0
   10.3850    4.6575   23.2386 O   0  0  0  0  0  0  0  0  0  0  0  0
    4.2069    6.8450   20.7994 C   0  0  0  0  0  0  0  0  0  0  0  0
    3.0726   10.1043   19.8522 O   0  0  0  0  0  0  0  0  0  0  0  0
    5.5057    7.1196   21.1155 C   0  0  0  0  0  0  0  0  0  0  0  0
    7.0367   11.0229   21.9948 O   0  0  0  0  0  0  0  0  0  0  0  0
  1  8  4  0
  1 12  4  0
  2  9  1  0
  2 11  4  0
  2 25  4  0
  3 12  4  0
  3 14  1  0
  3 23  4  0
  4 13  4  0
  4 21  4  0
  4 24  1  0
  5  8  4  0
  5 23  4  0
  6 18  2  0
  7 15  4  0
  7 16  1  0
  7 27  4  0
  8 18  1  0
 10 18  1  0
 10 20  1  0
 11 15  4  0
 11 26  1  0
 13 22  4  0
 16 19  1  0
 16 20  2  0
 17 19  4  0
 17 21  4  0
 19 22  4  0
 20 28  1  0
 25 27  4  0
M  END
$$$$

 Created by Python create_sdf_string function

 28 30  0  0  0  0  0  0  0  0999 V2000
   11.4592   11.2893   18.7941 C   0  0  0  0  0  0  0  0  0  0  0  0
    3.4202    7.9009   20.3866 C   0  0  0  0  0  0  0  0  0  0  0  0
   13.5280   10.3522   19.3586 C   0  0  0  0  0  0  0  0  0  0  0  0
    9.6923    5.6468   22.7891 C   0  0  0  0  0  0  0  0  0  0  0  0
   11.7756   10.2554   20.8841 N   0  0  0  0  0  0  0  0  0  0  0  0
    8.9876   11.9370   19.8757 O   0  0  0  0  0  0  0  0  0  0  0  0
    6.0167    8.4478   21.1089 C   0  0  0  0  0  0  0  0  0  0  0  0
   11.0002   10.8890   20.0262 C   0  0  0  0  0  0  0  0  0  0  0  0
    2.1721    7.7393   20.0315 O   0  0  0  0  0  0  0  0  0  0  0  0
    9.1107   10.3880   21.3769 N   0  0  0  0  0  0  0  0  0  0  0  0
    3.9102    9.2008   20.3124 C   0  0  0  0  0  0  0  0  0  0  0  0
   12.7292   10.9960   18.4597 C   0  0  0  0  0  0  0  0  0  0  0  0
    9.3798    6.6793   23.6625 C   0  0  0  0  0  0  0  0  0  0  0  0
   14.7425   10.0739   19.0802 O   0  0  0  0  0  0  0  0  0  0  0  0
    5.1894    9.4673   20.7118 C   0  0  0  0  0  0  0  0  0  0  0  0
    7.3773    8.8224   21.4870 C   0  0  0  0  0  0  0  0  0  0  0  0
    8.4391    6.6439   21.0235 C   0  0  0  0  0  0  0  0  0  0  0  0
    9.6494   11.1353   20.4167 C   0  0  0  0  0  0  0  0  0  0  0  0
    8.1431    7.6829   21.9046 C   0  0  0  0  0  0  0  0  0  0  0  0
    7.7796   10.1314   21.5115 N   0  0  0  0  0  0  0  0  0  0  0  0
    9.2768    5.6183   21.4437 C   0  0  0  0  0  0  0  0  0  0  0  0
    8.6315    7.7322   23.1768 C   0  0  0  0  0  0  0  0  0  0  0  0
   13.0537    9.9821   20.5781 C   0  0  0  0  0  0  0  0  0  0  0  0
   10.3850    4.6575   23.2386 O   0  0  0  0  0  0  0  0  0  0  0  0
    4.2069    6.8450   20.7994 C   0  0  0  0  0  0  0  0  0  0  0  0
    3.0726   10.1043   19.8522 O   0  0  0  0  0  0  0  0  0  0  0  0
    5.5057    7.1196   21.1155 C   0  0  0  0  0  0  0  0  0  0  0  0
    7.0367   11.0229   21.9948 O   0  0  0  0  0  0  0  0  0  0  0  0
  1  8  4  0
  1 12  4  0
  2  9  1  0
  2 11  4  0
  2 25  4  0
  3 12  4  0
  3 14  1  0
  3 23  4  0
  4 13  4  0
  4 21  4  0
  4 24  1  0
  5  8  4  0
  5 23  4  0
  6 18  2  0
  7 15  4  0
  7 16  1  0
  7 27  4  0
  8 18  1  0
 10 18  1  0
 10 20  1  0
 11 15  4  0
 11 26  1  0
 13 22  4  0
 16 19  1  0
 16 20  2  0
 17 19  4  0
 17 21  4  0
 19 22  4  0
 20 28  1  0
 25 27  4  0
M  END
$$$$

 Created by Python create_sdf_string function

 28 30  0  0  0  0  0  0  0  0999 V2000
   11.4592   11.2893   18.7941 C   0  0  0  0  0  0  0  0  0  0  0  0
    3.4202    7.9009   20.3866 C   0  0  0  0  0  0  0  0  0  0  0  0
   13.5280   10.3522   19.3586 C   0  0  0  0  0  0  0  0  0  0  0  0
    9.6923    5.6468   22.7891 C   0  0  0  0  0  0  0  0  0  0  0  0
   11.7756   10.2554   20.8841 N   0  0  0  0  0  0  0  0  0  0  0  0
    8.9876   11.9370   19.8757 O   0  0  0  0  0  0  0  0  0  0  0  0
    6.0167    8.4478   21.1089 C   0  0  0  0  0  0  0  0  0  0  0  0
   11.0002   10.8890   20.0262 C   0  0  0  0  0  0  0  0  0  0  0  0
    2.1721    7.7393   20.0315 O   0  0  0  0  0  0  0  0  0  0  0  0
    9.1107   10.3880   21.3769 N   0  0  0  0  0  0  0  0  0  0  0  0
    3.9102    9.2008   20.3124 C   0  0  0  0  0  0  0  0  0  0  0  0
   12.7292   10.9960   18.4597 C   0  0  0  0  0  0  0  0  0  0  0  0
    9.3798    6.6793   23.6625 C   0  0  0  0  0  0  0  0  0  0  0  0
   14.7425   10.0739   19.0802 O   0  0  0  0  0  0  0  0  0  0  0  0
    5.1894    9.4673   20.7118 C   0  0  0  0  0  0  0  0  0  0  0  0
    7.3773    8.8224   21.4870 C   0  0  0  0  0  0  0  0  0  0  0  0
    8.4391    6.6439   21.0235 C   0  0  0  0  0  0  0  0  0  0  0  0
    9.6494   11.1353   20.4167 C   0  0  0  0  0  0  0  0  0  0  0  0
    8.1431    7.6829   21.9046 C   0  0  0  0  0  0  0  0  0  0  0  0
    7.7796   10.1314   21.5115 N   0  0  0  0  0  0  0  0  0  0  0  0
    9.2768    5.6183   21.4437 C   0  0  0  0  0  0  0  0  0  0  0  0
    8.6315    7.7322   23.1768 C   0  0  0  0  0  0  0  0  0  0  0  0
   13.0537    9.9821   20.5781 C   0  0  0  0  0  0  0  0  0  0  0  0
   10.3850    4.6575   23.2386 O   0  0  0  0  0  0  0  0  0  0  0  0
    4.2069    6.8450   20.7994 C   0  0  0  0  0  0  0  0  0  0  0  0
    3.0726   10.1043   19.8522 O   0  0  0  0  0  0  0  0  0  0  0  0
    5.5057    7.1196   21.1155 C   0  0  0  0  0  0  0  0  0  0  0  0
    7.0367   11.0229   21.9948 O   0  0  0  0  0  0  0  0  0  0  0  0
  1  8  4  0
  1 12  4  0
  2  9  1  0
  2 11  4  0
  2 25  4  0
  3 12  4  0
  3 14  1  0
  3 23  4  0
  4 13  4  0
  4 21  4  0
  4 24  1  0
  5  8  4  0
  5 23  4  0
  6 18  2  0
  7 15  4  0
  7 16  1  0
  7 27  4  0
  8 18  1  0
 10 18  1  0
 10 20  1  0
 11 15  4  0
 11 26  1  0
 13 22  4  0
 16 19  1  0
 16 20  2  0
 17 19  4  0
 17 21  4  0
 19 22  4  0
 20 28  1  0
 25 27  4  0
M  END
$$$$

 Created by Python create_sdf_string function

 28 30  0  0  0  0  0  0  0  0999 V2000
   11.4592   11.2893   18.7941 C   0  0  0  0  0  0  0  0  0  0  0  0
    3.4202    7.9009   20.3866 C   0  0  0  0  0  0  0  0  0  0  0  0
   13.5280   10.3522   19.3586 C   0  0  0  0  0  0  0  0  0  0  0  0
    9.6923    5.6468   22.7891 C   0  0  0  0  0  0  0  0  0  0  0  0
   11.7756   10.2554   20.8841 N   0  0  0  0  0  0  0  0  0  0  0  0
    8.9876   11.9370   19.8757 O   0  0  0  0  0  0  0  0  0  0  0  0
    6.0167    8.4478   21.1089 C   0  0  0  0  0  0  0  0  0  0  0  0
   11.0002   10.8890   20.0262 C   0  0  0  0  0  0  0  0  0  0  0  0
    2.1721    7.7393   20.0315 O   0  0  0  0  0  0  0  0  0  0  0  0
    9.1107   10.3880   21.3769 N   0  0  0  0  0  0  0  0  0  0  0  0
    3.9102    9.2008   20.3124 C   0  0  0  0  0  0  0  0  0  0  0  0
   12.7292   10.9960   18.4597 C   0  0  0  0  0  0  0  0  0  0  0  0
    9.3798    6.6793   23.6625 C   0  0  0  0  0  0  0  0  0  0  0  0
   14.7425   10.0739   19.0802 O   0  0  0  0  0  0  0  0  0  0  0  0
    5.1894    9.4673   20.7118 C   0  0  0  0  0  0  0  0  0  0  0  0
    7.3773    8.8224   21.4870 C   0  0  0  0  0  0  0  0  0  0  0  0
    8.4391    6.6439   21.0235 C   0  0  0  0  0  0  0  0  0  0  0  0
    9.6494   11.1353   20.4167 C   0  0  0  0  0  0  0  0  0  0  0  0
    8.1431    7.6829   21.9046 C   0  0  0  0  0  0  0  0  0  0  0  0
    7.7796   10.1314   21.5115 N   0  0  0  0  0  0  0  0  0  0  0  0
    9.2768    5.6183   21.4437 C   0  0  0  0  0  0  0  0  0  0  0  0
    8.6315    7.7322   23.1768 C   0  0  0  0  0  0  0  0  0  0  0  0
   13.0537    9.9821   20.5781 C   0  0  0  0  0  0  0  0  0  0  0  0
   10.3850    4.6575   23.2386 O   0  0  0  0  0  0  0  0  0  0  0  0
    4.2069    6.8450   20.7994 C   0  0  0  0  0  0  0  0  0  0  0  0
    3.0726   10.1043   19.8522 O   0  0  0  0  0  0  0  0  0  0  0  0
    5.5057    7.1196   21.1155 C   0  0  0  0  0  0  0  0  0  0  0  0
    7.0367   11.0229   21.9948 O   0  0  0  0  0  0  0  0  0  0  0  0
  1  8  4  0
  1 12  4  0
  2  9  1  0
  2 11  4  0
  2 25  4  0
  3 12  4  0
  3 14  1  0
  3 23  4  0
  4 13  4  0
  4 21  4  0
  4 24  1  0
  5  8  4  0
  5 23  4  0
  6 18  2  0
  7 15  4  0
  7 16  1  0
  7 27  4  0
  8 18  1  0
 10 18  1  0
 10 20  1  0
 11 15  4  0
 11 26  1  0
 13 22  4  0
 16 19  1  0
 16 20  2  0
 17 19  4  0
 17 21  4  0
 19 22  4  0
 20 28  1  0
 25 27  4  0
M  END
$$$$

 Created by Python create_sdf_string function

 28 30  0  0  0  0  0  0  0  0999 V2000
   11.4592   11.2893   18.7941 C   0  0  0  0  0  0  0  0  0  0  0  0
    3.4202    7.9009   20.3866 C   0  0  0  0  0  0  0  0  0  0  0  0
   13.5280   10.3522   19.3586 C   0  0  0  0  0  0  0  0  0  0  0  0
    9.6923    5.6468   22.7891 C   0  0  0  0  0  0  0  0  0  0  0  0
   11.7756   10.2554   20.8841 N   0  0  0  0  0  0  0  0  0  0  0  0
    8.9876   11.9370   19.8757 O   0  0  0  0  0  0  0  0  0  0  0  0
    6.0167    8.4478   21.1089 C   0  0  0  0  0  0  0  0  0  0  0  0
   11.0002   10.8890   20.0262 C   0  0  0  0  0  0  0  0  0  0  0  0
    2.1721    7.7393   20.0315 O   0  0  0  0  0  0  0  0  0  0  0  0
    9.1107   10.3880   21.3769 N   0  0  0  0  0  0  0  0  0  0  0  0
    3.9102    9.2008   20.3124 C   0  0  0  0  0  0  0  0  0  0  0  0
   12.7292   10.9960   18.4597 C   0  0  0  0  0  0  0  0  0  0  0  0
    9.3798    6.6793   23.6625 C   0  0  0  0  0  0  0  0  0  0  0  0
   14.7425   10.0739   19.0802 O   0  0  0  0  0  0  0  0  0  0  0  0
    5.1894    9.4673   20.7118 C   0  0  0  0  0  0  0  0  0  0  0  0
    7.3773    8.8224   21.4870 C   0  0  0  0  0  0  0  0  0  0  0  0
    8.4391    6.6439   21.0235 C   0  0  0  0  0  0  0  0  0  0  0  0
    9.6494   11.1353   20.4167 C   0  0  0  0  0  0  0  0  0  0  0  0
    8.1431    7.6829   21.9046 C   0  0  0  0  0  0  0  0  0  0  0  0
    7.7796   10.1314   21.5115 N   0  0  0  0  0  0  0  0  0  0  0  0
    9.2768    5.6183   21.4437 C   0  0  0  0  0  0  0  0  0  0  0  0
    8.6315    7.7322   23.1768 C   0  0  0  0  0  0  0  0  0  0  0  0
   13.0537    9.9821   20.5781 C   0  0  0  0  0  0  0  0  0  0  0  0
   10.3850    4.6575   23.2386 O   0  0  0  0  0  0  0  0  0  0  0  0
    4.2069    6.8450   20.7994 C   0  0  0  0  0  0  0  0  0  0  0  0
    3.0726   10.1043   19.8522 O   0  0  0  0  0  0  0  0  0  0  0  0
    5.5057    7.1196   21.1155 C   0  0  0  0  0  0  0  0  0  0  0  0
    7.0367   11.0229   21.9948 O   0  0  0  0  0  0  0  0  0  0  0  0
  1  8  4  0
  1 12  4  0
  2  9  1  0
  2 11  4  0
  2 25  4  0
  3 12  4  0
  3 14  1  0
  3 23  4  0
  4 13  4  0
  4 21  4  0
  4 24  1  0
  5  8  4  0
  5 23  4  0
  6 18  2  0
  7 15  4  0
  7 16  1  0
  7 27  4  0
  8 18  1  0
 10 18  1  0
 10 20  1  0
 11 15  4  0
 11 26  1  0
 13 22  4  0
 16 19  1  0
 16 20  2  0
 17 19  4  0
 17 21  4  0
 19 22  4  0
 20 28  1  0
 25 27  4  0
M  END
$$$$

 Created by Python create_sdf_string function

 28 30  0  0  0  0  0  0  0  0999 V2000
   11.4592   11.2893   18.7941 C   0  0  0  0  0  0  0  0  0  0  0  0
    3.4202    7.9009   20.3866 C   0  0  0  0  0  0  0  0  0  0  0  0
   13.5280   10.3522   19.3586 C   0  0  0  0  0  0  0  0  0  0  0  0
    9.6923    5.6468   22.7891 C   0  0  0  0  0  0  0  0  0  0  0  0
   11.7756   10.2554   20.8841 N   0  0  0  0  0  0  0  0  0  0  0  0
    8.9876   11.9370   19.8757 O   0  0  0  0  0  0  0  0  0  0  0  0
    6.0167    8.4478   21.1089 C   0  0  0  0  0  0  0  0  0  0  0  0
   11.0002   10.8890   20.0262 C   0  0  0  0  0  0  0  0  0  0  0  0
    2.1721    7.7393   20.0315 O   0  0  0  0  0  0  0  0  0  0  0  0
    9.1107   10.3880   21.3769 N   0  0  0  0  0  0  0  0  0  0  0  0
    3.9102    9.2008   20.3124 C   0  0  0  0  0  0  0  0  0  0  0  0
   12.7292   10.9960   18.4597 C   0  0  0  0  0  0  0  0  0  0  0  0
    9.3798    6.6793   23.6625 C   0  0  0  0  0  0  0  0  0  0  0  0
   14.7425   10.0739   19.0802 O   0  0  0  0  0  0  0  0  0  0  0  0
    5.1894    9.4673   20.7118 C   0  0  0  0  0  0  0  0  0  0  0  0
    7.3773    8.8224   21.4870 C   0  0  0  0  0  0  0  0  0  0  0  0
    8.4391    6.6439   21.0235 C   0  0  0  0  0  0  0  0  0  0  0  0
    9.6494   11.1353   20.4167 C   0  0  0  0  0  0  0  0  0  0  0  0
    8.1431    7.6829   21.9046 C   0  0  0  0  0  0  0  0  0  0  0  0
    7.7796   10.1314   21.5115 N   0  0  0  0  0  0  0  0  0  0  0  0
    9.2768    5.6183   21.4437 C   0  0  0  0  0  0  0  0  0  0  0  0
    8.6315    7.7322   23.1768 C   0  0  0  0  0  0  0  0  0  0  0  0
   13.0537    9.9821   20.5781 C   0  0  0  0  0  0  0  0  0  0  0  0
   10.3850    4.6575   23.2386 O   0  0  0  0  0  0  0  0  0  0  0  0
    4.2069    6.8450   20.7994 C   0  0  0  0  0  0  0  0  0  0  0  0
    3.0726   10.1043   19.8522 O   0  0  0  0  0  0  0  0  0  0  0  0
    5.5057    7.1196   21.1155 C   0  0  0  0  0  0  0  0  0  0  0  0
    7.0367   11.0229   21.9948 O   0  0  0  0  0  0  0  0  0  0  0  0
  1  8  4  0
  1 12  4  0
  2  9  1  0
  2 11  4  0
  2 25  4  0
  3 12  4  0
  3 14  1  0
  3 23  4  0
  4 13  4  0
  4 21  4  0
  4 24  1  0
  5  8  4  0
  5 23  4  0
  6 18  2  0
  7 15  4  0
  7 16  1  0
  7 27  4  0
  8 18  1  0
 10 18  1  0
 10 20  1  0
 11 15  4  0
 11 26  1  0
 13 22  4  0
 16 19  1  0
 16 20  2  0
 17 19  4  0
 17 21  4  0
 19 22  4  0
 20 28  1  0
 25 27  4  0
M  END
$$$$

 Created by Python create_sdf_string function

 28 30  0  0  0  0  0  0  0  0999 V2000
   11.4592   11.2893   18.7941 C   0  0  0  0  0  0  0  0  0  0  0  0
    3.4202    7.9009   20.3866 C   0  0  0  0  0  0  0  0  0  0  0  0
   13.5280   10.3522   19.3586 C   0  0  0  0  0  0  0  0  0  0  0  0
    9.6923    5.6468   22.7891 C   0  0  0  0  0  0  0  0  0  0  0  0
   11.7756   10.2554   20.8841 N   0  0  0  0  0  0  0  0  0  0  0  0
    8.9876   11.9370   19.8757 O   0  0  0  0  0  0  0  0  0  0  0  0
    6.0167    8.4478   21.1089 C   0  0  0  0  0  0  0  0  0  0  0  0
   11.0002   10.8890   20.0262 C   0  0  0  0  0  0  0  0  0  0  0  0
    2.1721    7.7393   20.0315 O   0  0  0  0  0  0  0  0  0  0  0  0
    9.1107   10.3880   21.3769 N   0  0  0  0  0  0  0  0  0  0  0  0
    3.9102    9.2008   20.3124 C   0  0  0  0  0  0  0  0  0  0  0  0
   12.7292   10.9960   18.4597 C   0  0  0  0  0  0  0  0  0  0  0  0
    9.3798    6.6793   23.6625 C   0  0  0  0  0  0  0  0  0  0  0  0
   14.7425   10.0739   19.0802 O   0  0  0  0  0  0  0  0  0  0  0  0
    5.1894    9.4673   20.7118 C   0  0  0  0  0  0  0  0  0  0  0  0
    7.3773    8.8224   21.4870 C   0  0  0  0  0  0  0  0  0  0  0  0
    8.4391    6.6439   21.0235 C   0  0  0  0  0  0  0  0  0  0  0  0
    9.6494   11.1353   20.4167 C   0  0  0  0  0  0  0  0  0  0  0  0
    8.1431    7.6829   21.9046 C   0  0  0  0  0  0  0  0  0  0  0  0
    7.7796   10.1314   21.5115 N   0  0  0  0  0  0  0  0  0  0  0  0
    9.2768    5.6183   21.4437 C   0  0  0  0  0  0  0  0  0  0  0  0
    8.6315    7.7322   23.1768 C   0  0  0  0  0  0  0  0  0  0  0  0
   13.0537    9.9821   20.5781 C   0  0  0  0  0  0  0  0  0  0  0  0
   10.3850    4.6575   23.2386 O   0  0  0  0  0  0  0  0  0  0  0  0
    4.2069    6.8450   20.7994 C   0  0  0  0  0  0  0  0  0  0  0  0
    3.0726   10.1043   19.8522 O   0  0  0  0  0  0  0  0  0  0  0  0
    5.5057    7.1196   21.1155 C   0  0  0  0  0  0  0  0  0  0  0  0
    7.0367   11.0229   21.9948 O   0  0  0  0  0  0  0  0  0  0  0  0
  1  8  4  0
  1 12  4  0
  2  9  1  0
  2 11  4  0
  2 25  4  0
  3 12  4  0
  3 14  1  0
  3 23  4  0
  4 13  4  0
  4 21  4  0
  4 24  1  0
  5  8  4  0
  5 23  4  0
  6 18  2  0
  7 15  4  0
  7 16  1  0
  7 27  4  0
  8 18  1  0
 10 18  1  0
 10 20  1  0
 11 15  4  0
 11 26  1  0
 13 22  4  0
 16 19  1  0
 16 20  2  0
 17 19  4  0
 17 21  4  0
 19 22  4  0
 20 28  1  0
 25 27  4  0
M  END
$$$$

 Created by Python create_sdf_string function

 28 30  0  0  0  0  0  0  0  0999 V2000
   11.4592   11.2893   18.7941 C   0  0  0  0  0  0  0  0  0  0  0  0
    3.4202    7.9009   20.3866 C   0  0  0  0  0  0  0  0  0  0  0  0
   13.5280   10.3522   19.3586 C   0  0  0  0  0  0  0  0  0  0  0  0
    9.6923    5.6468   22.7891 C   0  0  0  0  0  0  0  0  0  0  0  0
   11.7756   10.2554   20.8841 N   0  0  0  0  0  0  0  0  0  0  0  0
    8.9876   11.9370   19.8757 O   0  0  0  0  0  0  0  0  0  0  0  0
    6.0167    8.4478   21.1089 C   0  0  0  0  0  0  0  0  0  0  0  0
   11.0002   10.8890   20.0262 C   0  0  0  0  0  0  0  0  0  0  0  0
    2.1721    7.7393   20.0315 O   0  0  0  0  0  0  0  0  0  0  0  0
    9.1107   10.3880   21.3769 N   0  0  0  0  0  0  0  0  0  0  0  0
    3.9102    9.2008   20.3124 C   0  0  0  0  0  0  0  0  0  0  0  0
   12.7292   10.9960   18.4597 C   0  0  0  0  0  0  0  0  0  0  0  0
    9.3798    6.6793   23.6625 C   0  0  0  0  0  0  0  0  0  0  0  0
   14.7425   10.0739   19.0802 O   0  0  0  0  0  0  0  0  0  0  0  0
    5.1894    9.4673   20.7118 C   0  0  0  0  0  0  0  0  0  0  0  0
    7.3773    8.8224   21.4870 C   0  0  0  0  0  0  0  0  0  0  0  0
    8.4391    6.6439   21.0235 C   0  0  0  0  0  0  0  0  0  0  0  0
    9.6494   11.1353   20.4167 C   0  0  0  0  0  0  0  0  0  0  0  0
    8.1431    7.6829   21.9046 C   0  0  0  0  0  0  0  0  0  0  0  0
    7.7796   10.1314   21.5115 N   0  0  0  0  0  0  0  0  0  0  0  0
    9.2768    5.6183   21.4437 C   0  0  0  0  0  0  0  0  0  0  0  0
    8.6315    7.7322   23.1768 C   0  0  0  0  0  0  0  0  0  0  0  0
   13.0537    9.9821   20.5781 C   0  0  0  0  0  0  0  0  0  0  0  0
   10.3850    4.6575   23.2386 O   0  0  0  0  0  0  0  0  0  0  0  0
    4.2069    6.8450   20.7994 C   0  0  0  0  0  0  0  0  0  0  0  0
    3.0726   10.1043   19.8522 O   0  0  0  0  0  0  0  0  0  0  0  0
    5.5057    7.1196   21.1155 C   0  0  0  0  0  0  0  0  0  0  0  0
    7.0367   11.0229   21.9948 O   0  0  0  0  0  0  0  0  0  0  0  0
  1  8  4  0
  1 12  4  0
  2  9  1  0
  2 11  4  0
  2 25  4  0
  3 12  4  0
  3 14  1  0
  3 23  4  0
  4 13  4  0
  4 21  4  0
  4 24  1  0
  5  8  4  0
  5 23  4  0
  6 18  2  0
  7 15  4  0
  7 16  1  0
  7 27  4  0
  8 18  1  0
 10 18  1  0
 10 20  1  0
 11 15  4  0
 11 26  1  0
 13 22  4  0
 16 19  1  0
 16 20  2  0
 17 19  4  0
 17 21  4  0
 19 22  4  0
 20 28  1  0
 25 27  4  0
M  END
$$$$

 Created by Python create_sdf_string function

 28 30  0  0  0  0  0  0  0  0999 V2000
   11.4592   11.2893   18.7941 C   0  0  0  0  0  0  0  0  0  0  0  0
    3.4202    7.9009   20.3866 C   0  0  0  0  0  0  0  0  0  0  0  0
   13.5280   10.3522   19.3586 C   0  0  0  0  0  0  0  0  0  0  0  0
    9.6923    5.6468   22.7891 C   0  0  0  0  0  0  0  0  0  0  0  0
   11.7756   10.2554   20.8841 N   0  0  0  0  0  0  0  0  0  0  0  0
    8.9876   11.9370   19.8757 O   0  0  0  0  0  0  0  0  0  0  0  0
    6.0167    8.4478   21.1089 C   0  0  0  0  0  0  0  0  0  0  0  0
   11.0002   10.8890   20.0262 C   0  0  0  0  0  0  0  0  0  0  0  0
    2.1721    7.7393   20.0315 O   0  0  0  0  0  0  0  0  0  0  0  0
    9.1107   10.3880   21.3769 N   0  0  0  0  0  0  0  0  0  0  0  0
    3.9102    9.2008   20.3124 C   0  0  0  0  0  0  0  0  0  0  0  0
   12.7292   10.9960   18.4597 C   0  0  0  0  0  0  0  0  0  0  0  0
    9.3798    6.6793   23.6625 C   0  0  0  0  0  0  0  0  0  0  0  0
   14.7425   10.0739   19.0802 O   0  0  0  0  0  0  0  0  0  0  0  0
    5.1894    9.4673   20.7118 C   0  0  0  0  0  0  0  0  0  0  0  0
    7.3773    8.8224   21.4870 C   0  0  0  0  0  0  0  0  0  0  0  0
    8.4391    6.6439   21.0235 C   0  0  0  0  0  0  0  0  0  0  0  0
    9.6494   11.1353   20.4167 C   0  0  0  0  0  0  0  0  0  0  0  0
    8.1431    7.6829   21.9046 C   0  0  0  0  0  0  0  0  0  0  0  0
    7.7796   10.1314   21.5115 N   0  0  0  0  0  0  0  0  0  0  0  0
    9.2768    5.6183   21.4437 C   0  0  0  0  0  0  0  0  0  0  0  0
    8.6315    7.7322   23.1768 C   0  0  0  0  0  0  0  0  0  0  0  0
   13.0537    9.9821   20.5781 C   0  0  0  0  0  0  0  0  0  0  0  0
   10.3850    4.6575   23.2386 O   0  0  0  0  0  0  0  0  0  0  0  0
    4.2069    6.8450   20.7994 C   0  0  0  0  0  0  0  0  0  0  0  0
    3.0726   10.1043   19.8522 O   0  0  0  0  0  0  0  0  0  0  0  0
    5.5057    7.1196   21.1155 C   0  0  0  0  0  0  0  0  0  0  0  0
    7.0367   11.0229   21.9948 O   0  0  0  0  0  0  0  0  0  0  0  0
  1  8  4  0
  1 12  4  0
  2  9  1  0
  2 11  4  0
  2 25  4  0
  3 12  4  0
  3 14  1  0
  3 23  4  0
  4 13  4  0
  4 21  4  0
  4 24  1  0
  5  8  4  0
  5 23  4  0
  6 18  2  0
  7 15  4  0
  7 16  1  0
  7 27  4  0
  8 18  1  0
 10 18  1  0
 10 20  1  0
 11 15  4  0
 11 26  1  0
 13 22  4  0
 16 19  1  0
 16 20  2  0
 17 19  4  0
 17 21  4  0
 19 22  4  0
 20 28  1  0
 25 27  4  0
M  END
$$$$

 Created by Python create_sdf_string function

 28 30  0  0  0  0  0  0  0  0999 V2000
   11.4592   11.2893   18.7941 C   0  0  0  0  0  0  0  0  0  0  0  0
    3.4202    7.9009   20.3866 C   0  0  0  0  0  0  0  0  0  0  0  0
   13.5280   10.3522   19.3586 C   0  0  0  0  0  0  0  0  0  0  0  0
    9.6923    5.6468   22.7891 C   0  0  0  0  0  0  0  0  0  0  0  0
   11.7756   10.2554   20.8841 N   0  0  0  0  0  0  0  0  0  0  0  0
    8.9876   11.9370   19.8757 O   0  0  0  0  0  0  0  0  0  0  0  0
    6.0167    8.4478   21.1089 C   0  0  0  0  0  0  0  0  0  0  0  0
   11.0002   10.8890   20.0262 C   0  0  0  0  0  0  0  0  0  0  0  0
    2.1721    7.7393   20.0315 O   0  0  0  0  0  0  0  0  0  0  0  0
    9.1107   10.3880   21.3769 N   0  0  0  0  0  0  0  0  0  0  0  0
    3.9102    9.2008   20.3124 C   0  0  0  0  0  0  0  0  0  0  0  0
   12.7292   10.9960   18.4597 C   0  0  0  0  0  0  0  0  0  0  0  0
    9.3798    6.6793   23.6625 C   0  0  0  0  0  0  0  0  0  0  0  0
   14.7425   10.0739   19.0802 O   0  0  0  0  0  0  0  0  0  0  0  0
    5.1894    9.4673   20.7118 C   0  0  0  0  0  0  0  0  0  0  0  0
    7.3773    8.8224   21.4870 C   0  0  0  0  0  0  0  0  0  0  0  0
    8.4391    6.6439   21.0235 C   0  0  0  0  0  0  0  0  0  0  0  0
    9.6494   11.1353   20.4167 C   0  0  0  0  0  0  0  0  0  0  0  0
    8.1431    7.6829   21.9046 C   0  0  0  0  0  0  0  0  0  0  0  0
    7.7796   10.1314   21.5115 N   0  0  0  0  0  0  0  0  0  0  0  0
    9.2768    5.6183   21.4437 C   0  0  0  0  0  0  0  0  0  0  0  0
    8.6315    7.7322   23.1768 C   0  0  0  0  0  0  0  0  0  0  0  0
   13.0537    9.9821   20.5781 C   0  0  0  0  0  0  0  0  0  0  0  0
   10.3850    4.6575   23.2386 O   0  0  0  0  0  0  0  0  0  0  0  0
    4.2069    6.8450   20.7994 C   0  0  0  0  0  0  0  0  0  0  0  0
    3.0726   10.1043   19.8522 O   0  0  0  0  0  0  0  0  0  0  0  0
    5.5057    7.1196   21.1155 C   0  0  0  0  0  0  0  0  0  0  0  0
    7.0367   11.0229   21.9948 O   0  0  0  0  0  0  0  0  0  0  0  0
  1  8  4  0
  1 12  4  0
  2  9  1  0
  2 11  4  0
  2 25  4  0
  3 12  4  0
  3 14  1  0
  3 23  4  0
  4 13  4  0
  4 21  4  0
  4 24  1  0
  5  8  4  0
  5 23  4  0
  6 18  2  0
  7 15  4  0
  7 16  1  0
  7 27  4  0
  8 18  1  0
 10 18  1  0
 10 20  1  0
 11 15  4  0
 11 26  1  0
 13 22  4  0
 16 19  1  0
 16 20  2  0
 17 19  4  0
 17 21  4  0
 19 22  4  0
 20 28  1  0
 25 27  4  0
M  END
$$$$

 Created by Python create_sdf_string function

 28 30  0  0  0  0  0  0  0  0999 V2000
   11.4592   11.2893   18.7941 C   0  0  0  0  0  0  0  0  0  0  0  0
    3.4202    7.9009   20.3866 C   0  0  0  0  0  0  0  0  0  0  0  0
   13.5280   10.3522   19.3586 C   0  0  0  0  0  0  0  0  0  0  0  0
    9.6923    5.6468   22.7891 C   0  0  0  0  0  0  0  0  0  0  0  0
   11.7756   10.2554   20.8841 N   0  0  0  0  0  0  0  0  0  0  0  0
    8.9876   11.9370   19.8757 O   0  0  0  0  0  0  0  0  0  0  0  0
    6.0167    8.4478   21.1089 C   0  0  0  0  0  0  0  0  0  0  0  0
   11.0002   10.8890   20.0262 C   0  0  0  0  0  0  0  0  0  0  0  0
    2.1721    7.7393   20.0315 O   0  0  0  0  0  0  0  0  0  0  0  0
    9.1107   10.3880   21.3769 N   0  0  0  0  0  0  0  0  0  0  0  0
    3.9102    9.2008   20.3124 C   0  0  0  0  0  0  0  0  0  0  0  0
   12.7292   10.9960   18.4597 C   0  0  0  0  0  0  0  0  0  0  0  0
    9.3798    6.6793   23.6625 C   0  0  0  0  0  0  0  0  0  0  0  0
   14.7425   10.0739   19.0802 O   0  0  0  0  0  0  0  0  0  0  0  0
    5.1894    9.4673   20.7118 C   0  0  0  0  0  0  0  0  0  0  0  0
    7.3773    8.8224   21.4870 C   0  0  0  0  0  0  0  0  0  0  0  0
    8.4391    6.6439   21.0235 C   0  0  0  0  0  0  0  0  0  0  0  0
    9.6494   11.1353   20.4167 C   0  0  0  0  0  0  0  0  0  0  0  0
    8.1431    7.6829   21.9046 C   0  0  0  0  0  0  0  0  0  0  0  0
    7.7796   10.1314   21.5115 N   0  0  0  0  0  0  0  0  0  0  0  0
    9.2768    5.6183   21.4437 C   0  0  0  0  0  0  0  0  0  0  0  0
    8.6315    7.7322   23.1768 C   0  0  0  0  0  0  0  0  0  0  0  0
   13.0537    9.9821   20.5781 C   0  0  0  0  0  0  0  0  0  0  0  0
   10.3850    4.6575   23.2386 O   0  0  0  0  0  0  0  0  0  0  0  0
    4.2069    6.8450   20.7994 C   0  0  0  0  0  0  0  0  0  0  0  0
    3.0726   10.1043   19.8522 O   0  0  0  0  0  0  0  0  0  0  0  0
    5.5057    7.1196   21.1155 C   0  0  0  0  0  0  0  0  0  0  0  0
    7.0367   11.0229   21.9948 O   0  0  0  0  0  0  0  0  0  0  0  0
  1  8  4  0
  1 12  4  0
  2  9  1  0
  2 11  4  0
  2 25  4  0
  3 12  4  0
  3 14  1  0
  3 23  4  0
  4 13  4  0
  4 21  4  0
  4 24  1  0
  5  8  4  0
  5 23  4  0
  6 18  2  0
  7 15  4  0
  7 16  1  0
  7 27  4  0
  8 18  1  0
 10 18  1  0
 10 20  1  0
 11 15  4  0
 11 26  1  0
 13 22  4  0
 16 19  1  0
 16 20  2  0
 17 19  4  0
 17 21  4  0
 19 22  4  0
 20 28  1  0
 25 27  4  0
M  END
$$$$

 Created by Python create_sdf_string function

 28 30  0  0  0  0  0  0  0  0999 V2000
   11.4592   11.2893   18.7941 C   0  0  0  0  0  0  0  0  0  0  0  0
    3.4202    7.9009   20.3866 C   0  0  0  0  0  0  0  0  0  0  0  0
   13.5280   10.3522   19.3586 C   0  0  0  0  0  0  0  0  0  0  0  0
    9.6923    5.6468   22.7891 C   0  0  0  0  0  0  0  0  0  0  0  0
   11.7756   10.2554   20.8841 N   0  0  0  0  0  0  0  0  0  0  0  0
    8.9876   11.9370   19.8757 O   0  0  0  0  0  0  0  0  0  0  0  0
    6.0167    8.4478   21.1089 C   0  0  0  0  0  0  0  0  0  0  0  0
   11.0002   10.8890   20.0262 C   0  0  0  0  0  0  0  0  0  0  0  0
    2.1721    7.7393   20.0315 O   0  0  0  0  0  0  0  0  0  0  0  0
    9.1107   10.3880   21.3769 N   0  0  0  0  0  0  0  0  0  0  0  0
    3.9102    9.2008   20.3124 C   0  0  0  0  0  0  0  0  0  0  0  0
   12.7292   10.9960   18.4597 C   0  0  0  0  0  0  0  0  0  0  0  0
    9.3798    6.6793   23.6625 C   0  0  0  0  0  0  0  0  0  0  0  0
   14.7425   10.0739   19.0802 O   0  0  0  0  0  0  0  0  0  0  0  0
    5.1894    9.4673   20.7118 C   0  0  0  0  0  0  0  0  0  0  0  0
    7.3773    8.8224   21.4870 C   0  0  0  0  0  0  0  0  0  0  0  0
    8.4391    6.6439   21.0235 C   0  0  0  0  0  0  0  0  0  0  0  0
    9.6494   11.1353   20.4167 C   0  0  0  0  0  0  0  0  0  0  0  0
    8.1431    7.6829   21.9046 C   0  0  0  0  0  0  0  0  0  0  0  0
    7.7796   10.1314   21.5115 N   0  0  0  0  0  0  0  0  0  0  0  0
    9.2768    5.6183   21.4437 C   0  0  0  0  0  0  0  0  0  0  0  0
    8.6315    7.7322   23.1768 C   0  0  0  0  0  0  0  0  0  0  0  0
   13.0537    9.9821   20.5781 C   0  0  0  0  0  0  0  0  0  0  0  0
   10.3850    4.6575   23.2386 O   0  0  0  0  0  0  0  0  0  0  0  0
    4.2069    6.8450   20.7994 C   0  0  0  0  0  0  0  0  0  0  0  0
    3.0726   10.1043   19.8522 O   0  0  0  0  0  0  0  0  0  0  0  0
    5.5057    7.1196   21.1155 C   0  0  0  0  0  0  0  0  0  0  0  0
    7.0367   11.0229   21.9948 O   0  0  0  0  0  0  0  0  0  0  0  0
  1  8  4  0
  1 12  4  0
  2  9  1  0
  2 11  4  0
  2 25  4  0
  3 12  4  0
  3 14  1  0
  3 23  4  0
  4 13  4  0
  4 21  4  0
  4 24  1  0
  5  8  4  0
  5 23  4  0
  6 18  2  0
  7 15  4  0
  7 16  1  0
  7 27  4  0
  8 18  1  0
 10 18  1  0
 10 20  1  0
 11 15  4  0
 11 26  1  0
 13 22  4  0
 16 19  1  0
 16 20  2  0
 17 19  4  0
 17 21  4  0
 19 22  4  0
 20 28  1  0
 25 27  4  0
M  END
$$$$

 Created by Python create_sdf_string function

 28 30  0  0  0  0  0  0  0  0999 V2000
   11.4592   11.2893   18.7941 C   0  0  0  0  0  0  0  0  0  0  0  0
    3.4202    7.9009   20.3866 C   0  0  0  0  0  0  0  0  0  0  0  0
   13.5280   10.3522   19.3586 C   0  0  0  0  0  0  0  0  0  0  0  0
    9.6923    5.6468   22.7891 C   0  0  0  0  0  0  0  0  0  0  0  0
   11.7756   10.2554   20.8841 N   0  0  0  0  0  0  0  0  0  0  0  0
    8.9876   11.9370   19.8757 O   0  0  0  0  0  0  0  0  0  0  0  0
    6.0167    8.4478   21.1089 C   0  0  0  0  0  0  0  0  0  0  0  0
   11.0002   10.8890   20.0262 C   0  0  0  0  0  0  0  0  0  0  0  0
    2.1721    7.7393   20.0315 O   0  0  0  0  0  0  0  0  0  0  0  0
    9.1107   10.3880   21.3769 N   0  0  0  0  0  0  0  0  0  0  0  0
    3.9102    9.2008   20.3124 C   0  0  0  0  0  0  0  0  0  0  0  0
   12.7292   10.9960   18.4597 C   0  0  0  0  0  0  0  0  0  0  0  0
    9.3798    6.6793   23.6625 C   0  0  0  0  0  0  0  0  0  0  0  0
   14.7425   10.0739   19.0802 O   0  0  0  0  0  0  0  0  0  0  0  0
    5.1894    9.4673   20.7118 C   0  0  0  0  0  0  0  0  0  0  0  0
    7.3773    8.8224   21.4870 C   0  0  0  0  0  0  0  0  0  0  0  0
    8.4391    6.6439   21.0235 C   0  0  0  0  0  0  0  0  0  0  0  0
    9.6494   11.1353   20.4167 C   0  0  0  0  0  0  0  0  0  0  0  0
    8.1431    7.6829   21.9046 C   0  0  0  0  0  0  0  0  0  0  0  0
    7.7796   10.1314   21.5115 N   0  0  0  0  0  0  0  0  0  0  0  0
    9.2768    5.6183   21.4437 C   0  0  0  0  0  0  0  0  0  0  0  0
    8.6315    7.7322   23.1768 C   0  0  0  0  0  0  0  0  0  0  0  0
   13.0537    9.9821   20.5781 C   0  0  0  0  0  0  0  0  0  0  0  0
   10.3850    4.6575   23.2386 O   0  0  0  0  0  0  0  0  0  0  0  0
    4.2069    6.8450   20.7994 C   0  0  0  0  0  0  0  0  0  0  0  0
    3.0726   10.1043   19.8522 O   0  0  0  0  0  0  0  0  0  0  0  0
    5.5057    7.1196   21.1155 C   0  0  0  0  0  0  0  0  0  0  0  0
    7.0367   11.0229   21.9948 O   0  0  0  0  0  0  0  0  0  0  0  0
  1  8  4  0
  1 12  4  0
  2  9  1  0
  2 11  4  0
  2 25  4  0
  3 12  4  0
  3 14  1  0
  3 23  4  0
  4 13  4  0
  4 21  4  0
  4 24  1  0
  5  8  4  0
  5 23  4  0
  6 18  2  0
  7 15  4  0
  7 16  1  0
  7 27  4  0
  8 18  1  0
 10 18  1  0
 10 20  1  0
 11 15  4  0
 11 26  1  0
 13 22  4  0
 16 19  1  0
 16 20  2  0
 17 19  4  0
 17 21  4  0
 19 22  4  0
 20 28  1  0
 25 27  4  0
M  END
$$$$

 Created by Python create_sdf_string function

 28 30  0  0  0  0  0  0  0  0999 V2000
   11.4592   11.2893   18.7941 C   0  0  0  0  0  0  0  0  0  0  0  0
    3.4202    7.9009   20.3866 C   0  0  0  0  0  0  0  0  0  0  0  0
   13.5280   10.3522   19.3586 C   0  0  0  0  0  0  0  0  0  0  0  0
    9.6923    5.6468   22.7891 C   0  0  0  0  0  0  0  0  0  0  0  0
   11.7756   10.2554   20.8841 N   0  0  0  0  0  0  0  0  0  0  0  0
    8.9876   11.9370   19.8757 O   0  0  0  0  0  0  0  0  0  0  0  0
    6.0167    8.4478   21.1089 C   0  0  0  0  0  0  0  0  0  0  0  0
   11.0002   10.8890   20.0262 C   0  0  0  0  0  0  0  0  0  0  0  0
    2.1721    7.7393   20.0315 O   0  0  0  0  0  0  0  0  0  0  0  0
    9.1107   10.3880   21.3769 N   0  0  0  0  0  0  0  0  0  0  0  0
    3.9102    9.2008   20.3124 C   0  0  0  0  0  0  0  0  0  0  0  0
   12.7292   10.9960   18.4597 C   0  0  0  0  0  0  0  0  0  0  0  0
    9.3798    6.6793   23.6625 C   0  0  0  0  0  0  0  0  0  0  0  0
   14.7425   10.0739   19.0802 O   0  0  0  0  0  0  0  0  0  0  0  0
    5.1894    9.4673   20.7118 C   0  0  0  0  0  0  0  0  0  0  0  0
    7.3773    8.8224   21.4870 C   0  0  0  0  0  0  0  0  0  0  0  0
    8.4391    6.6439   21.0235 C   0  0  0  0  0  0  0  0  0  0  0  0
    9.6494   11.1353   20.4167 C   0  0  0  0  0  0  0  0  0  0  0  0
    8.1431    7.6829   21.9046 C   0  0  0  0  0  0  0  0  0  0  0  0
    7.7796   10.1314   21.5115 N   0  0  0  0  0  0  0  0  0  0  0  0
    9.2768    5.6183   21.4437 C   0  0  0  0  0  0  0  0  0  0  0  0
    8.6315    7.7322   23.1768 C   0  0  0  0  0  0  0  0  0  0  0  0
   13.0537    9.9821   20.5781 C   0  0  0  0  0  0  0  0  0  0  0  0
   10.3850    4.6575   23.2386 O   0  0  0  0  0  0  0  0  0  0  0  0
    4.2069    6.8450   20.7994 C   0  0  0  0  0  0  0  0  0  0  0  0
    3.0726   10.1043   19.8522 O   0  0  0  0  0  0  0  0  0  0  0  0
    5.5057    7.1196   21.1155 C   0  0  0  0  0  0  0  0  0  0  0  0
    7.0367   11.0229   21.9948 O   0  0  0  0  0  0  0  0  0  0  0  0
  1  8  4  0
  1 12  4  0
  2  9  1  0
  2 11  4  0
  2 25  4  0
  3 12  4  0
  3 14  1  0
  3 23  4  0
  4 13  4  0
  4 21  4  0
  4 24  1  0
  5  8  4  0
  5 23  4  0
  6 18  2  0
  7 15  4  0
  7 16  1  0
  7 27  4  0
  8 18  1  0
 10 18  1  0
 10 20  1  0
 11 15  4  0
 11 26  1  0
 13 22  4  0
 16 19  1  0
 16 20  2  0
 17 19  4  0
 17 21  4  0
 19 22  4  0
 20 28  1  0
 25 27  4  0
M  END
$$$$

 Created by Python create_sdf_string function

 28 30  0  0  0  0  0  0  0  0999 V2000
   11.4592   11.2893   18.7941 C   0  0  0  0  0  0  0  0  0  0  0  0
    3.4202    7.9009   20.3866 C   0  0  0  0  0  0  0  0  0  0  0  0
   13.5280   10.3522   19.3586 C   0  0  0  0  0  0  0  0  0  0  0  0
    9.6923    5.6468   22.7891 C   0  0  0  0  0  0  0  0  0  0  0  0
   11.7756   10.2554   20.8841 N   0  0  0  0  0  0  0  0  0  0  0  0
    8.9876   11.9370   19.8757 O   0  0  0  0  0  0  0  0  0  0  0  0
    6.0167    8.4478   21.1089 C   0  0  0  0  0  0  0  0  0  0  0  0
   11.0002   10.8890   20.0262 C   0  0  0  0  0  0  0  0  0  0  0  0
    2.1721    7.7393   20.0315 O   0  0  0  0  0  0  0  0  0  0  0  0
    9.1107   10.3880   21.3769 N   0  0  0  0  0  0  0  0  0  0  0  0
    3.9102    9.2008   20.3124 C   0  0  0  0  0  0  0  0  0  0  0  0
   12.7292   10.9960   18.4597 C   0  0  0  0  0  0  0  0  0  0  0  0
    9.3798    6.6793   23.6625 C   0  0  0  0  0  0  0  0  0  0  0  0
   14.7425   10.0739   19.0802 O   0  0  0  0  0  0  0  0  0  0  0  0
    5.1894    9.4673   20.7118 C   0  0  0  0  0  0  0  0  0  0  0  0
    7.3773    8.8224   21.4870 C   0  0  0  0  0  0  0  0  0  0  0  0
    8.4391    6.6439   21.0235 C   0  0  0  0  0  0  0  0  0  0  0  0
    9.6494   11.1353   20.4167 C   0  0  0  0  0  0  0  0  0  0  0  0
    8.1431    7.6829   21.9046 C   0  0  0  0  0  0  0  0  0  0  0  0
    7.7796   10.1314   21.5115 N   0  0  0  0  0  0  0  0  0  0  0  0
    9.2768    5.6183   21.4437 C   0  0  0  0  0  0  0  0  0  0  0  0
    8.6315    7.7322   23.1768 C   0  0  0  0  0  0  0  0  0  0  0  0
   13.0537    9.9821   20.5781 C   0  0  0  0  0  0  0  0  0  0  0  0
   10.3850    4.6575   23.2386 O   0  0  0  0  0  0  0  0  0  0  0  0
    4.2069    6.8450   20.7994 C   0  0  0  0  0  0  0  0  0  0  0  0
    3.0726   10.1043   19.8522 O   0  0  0  0  0  0  0  0  0  0  0  0
    5.5057    7.1196   21.1155 C   0  0  0  0  0  0  0  0  0  0  0  0
    7.0367   11.0229   21.9948 O   0  0  0  0  0  0  0  0  0  0  0  0
  1  8  4  0
  1 12  4  0
  2  9  1  0
  2 11  4  0
  2 25  4  0
  3 12  4  0
  3 14  1  0
  3 23  4  0
  4 13  4  0
  4 21  4  0
  4 24  1  0
  5  8  4  0
  5 23  4  0
  6 18  2  0
  7 15  4  0
  7 16  1  0
  7 27  4  0
  8 18  1  0
 10 18  1  0
 10 20  1  0
 11 15  4  0
 11 26  1  0
 13 22  4  0
 16 19  1  0
 16 20  2  0
 17 19  4  0
 17 21  4  0
 19 22  4  0
 20 28  1  0
 25 27  4  0
M  END
$$$$

 Created by Python create_sdf_string function

 28 30  0  0  0  0  0  0  0  0999 V2000
   11.4592   11.2893   18.7941 C   0  0  0  0  0  0  0  0  0  0  0  0
    3.4202    7.9009   20.3866 C   0  0  0  0  0  0  0  0  0  0  0  0
   13.5280   10.3522   19.3586 C   0  0  0  0  0  0  0  0  0  0  0  0
    9.6923    5.6468   22.7891 C   0  0  0  0  0  0  0  0  0  0  0  0
   11.7756   10.2554   20.8841 N   0  0  0  0  0  0  0  0  0  0  0  0
    8.9876   11.9370   19.8757 O   0  0  0  0  0  0  0  0  0  0  0  0
    6.0167    8.4478   21.1089 C   0  0  0  0  0  0  0  0  0  0  0  0
   11.0002   10.8890   20.0262 C   0  0  0  0  0  0  0  0  0  0  0  0
    2.1721    7.7393   20.0315 O   0  0  0  0  0  0  0  0  0  0  0  0
    9.1107   10.3880   21.3769 N   0  0  0  0  0  0  0  0  0  0  0  0
    3.9102    9.2008   20.3124 C   0  0  0  0  0  0  0  0  0  0  0  0
   12.7292   10.9960   18.4597 C   0  0  0  0  0  0  0  0  0  0  0  0
    9.3798    6.6793   23.6625 C   0  0  0  0  0  0  0  0  0  0  0  0
   14.7425   10.0739   19.0802 O   0  0  0  0  0  0  0  0  0  0  0  0
    5.1894    9.4673   20.7118 C   0  0  0  0  0  0  0  0  0  0  0  0
    7.3773    8.8224   21.4870 C   0  0  0  0  0  0  0  0  0  0  0  0
    8.4391    6.6439   21.0235 C   0  0  0  0  0  0  0  0  0  0  0  0
    9.6494   11.1353   20.4167 C   0  0  0  0  0  0  0  0  0  0  0  0
    8.1431    7.6829   21.9046 C   0  0  0  0  0  0  0  0  0  0  0  0
    7.7796   10.1314   21.5115 N   0  0  0  0  0  0  0  0  0  0  0  0
    9.2768    5.6183   21.4437 C   0  0  0  0  0  0  0  0  0  0  0  0
    8.6315    7.7322   23.1768 C   0  0  0  0  0  0  0  0  0  0  0  0
   13.0537    9.9821   20.5781 C   0  0  0  0  0  0  0  0  0  0  0  0
   10.3850    4.6575   23.2386 O   0  0  0  0  0  0  0  0  0  0  0  0
    4.2069    6.8450   20.7994 C   0  0  0  0  0  0  0  0  0  0  0  0
    3.0726   10.1043   19.8522 O   0  0  0  0  0  0  0  0  0  0  0  0
    5.5057    7.1196   21.1155 C   0  0  0  0  0  0  0  0  0  0  0  0
    7.0367   11.0229   21.9948 O   0  0  0  0  0  0  0  0  0  0  0  0
  1  8  4  0
  1 12  4  0
  2  9  1  0
  2 11  4  0
  2 25  4  0
  3 12  4  0
  3 14  1  0
  3 23  4  0
  4 13  4  0
  4 21  4  0
  4 24  1  0
  5  8  4  0
  5 23  4  0
  6 18  2  0
  7 15  4  0
  7 16  1  0
  7 27  4  0
  8 18  1  0
 10 18  1  0
 10 20  1  0
 11 15  4  0
 11 26  1  0
 13 22  4  0
 16 19  1  0
 16 20  2  0
 17 19  4  0
 17 21  4  0
 19 22  4  0
 20 28  1  0
 25 27  4  0
M  END
$$$$

 Created by Python create_sdf_string function

 28 30  0  0  0  0  0  0  0  0999 V2000
   11.4592   11.2893   18.7941 C   0  0  0  0  0  0  0  0  0  0  0  0
    3.4202    7.9009   20.3866 C   0  0  0  0  0  0  0  0  0  0  0  0
   13.5280   10.3522   19.3586 C   0  0  0  0  0  0  0  0  0  0  0  0
    9.6923    5.6468   22.7891 C   0  0  0  0  0  0  0  0  0  0  0  0
   11.7756   10.2554   20.8841 N   0  0  0  0  0  0  0  0  0  0  0  0
    8.9876   11.9370   19.8757 O   0  0  0  0  0  0  0  0  0  0  0  0
    6.0167    8.4478   21.1089 C   0  0  0  0  0  0  0  0  0  0  0  0
   11.0002   10.8890   20.0262 C   0  0  0  0  0  0  0  0  0  0  0  0
    2.1721    7.7393   20.0315 O   0  0  0  0  0  0  0  0  0  0  0  0
    9.1107   10.3880   21.3769 N   0  0  0  0  0  0  0  0  0  0  0  0
    3.9102    9.2008   20.3124 C   0  0  0  0  0  0  0  0  0  0  0  0
   12.7292   10.9960   18.4597 C   0  0  0  0  0  0  0  0  0  0  0  0
    9.3798    6.6793   23.6625 C   0  0  0  0  0  0  0  0  0  0  0  0
   14.7425   10.0739   19.0802 O   0  0  0  0  0  0  0  0  0  0  0  0
    5.1894    9.4673   20.7118 C   0  0  0  0  0  0  0  0  0  0  0  0
    7.3773    8.8224   21.4870 C   0  0  0  0  0  0  0  0  0  0  0  0
    8.4391    6.6439   21.0235 C   0  0  0  0  0  0  0  0  0  0  0  0
    9.6494   11.1353   20.4167 C   0  0  0  0  0  0  0  0  0  0  0  0
    8.1431    7.6829   21.9046 C   0  0  0  0  0  0  0  0  0  0  0  0
    7.7796   10.1314   21.5115 N   0  0  0  0  0  0  0  0  0  0  0  0
    9.2768    5.6183   21.4437 C   0  0  0  0  0  0  0  0  0  0  0  0
    8.6315    7.7322   23.1768 C   0  0  0  0  0  0  0  0  0  0  0  0
   13.0537    9.9821   20.5781 C   0  0  0  0  0  0  0  0  0  0  0  0
   10.3850    4.6575   23.2386 O   0  0  0  0  0  0  0  0  0  0  0  0
    4.2069    6.8450   20.7994 C   0  0  0  0  0  0  0  0  0  0  0  0
    3.0726   10.1043   19.8522 O   0  0  0  0  0  0  0  0  0  0  0  0
    5.5057    7.1196   21.1155 C   0  0  0  0  0  0  0  0  0  0  0  0
    7.0367   11.0229   21.9948 O   0  0  0  0  0  0  0  0  0  0  0  0
  1  8  4  0
  1 12  4  0
  2  9  1  0
  2 11  4  0
  2 25  4  0
  3 12  4  0
  3 14  1  0
  3 23  4  0
  4 13  4  0
  4 21  4  0
  4 24  1  0
  5  8  4  0
  5 23  4  0
  6 18  2  0
  7 15  4  0
  7 16  1  0
  7 27  4  0
  8 18  1  0
 10 18  1  0
 10 20  1  0
 11 15  4  0
 11 26  1  0
 13 22  4  0
 16 19  1  0
 16 20  2  0
 17 19  4  0
 17 21  4  0
 19 22  4  0
 20 28  1  0
 25 27  4  0
M  END
$$$$

 Created by Python create_sdf_string function

 28 30  0  0  0  0  0  0  0  0999 V2000
   11.4592   11.2893   18.7941 C   0  0  0  0  0  0  0  0  0  0  0  0
    3.4202    7.9009   20.3866 C   0  0  0  0  0  0  0  0  0  0  0  0
   13.5280   10.3522   19.3586 C   0  0  0  0  0  0  0  0  0  0  0  0
    9.6923    5.6468   22.7891 C   0  0  0  0  0  0  0  0  0  0  0  0
   11.7756   10.2554   20.8841 N   0  0  0  0  0  0  0  0  0  0  0  0
    8.9876   11.9370   19.8757 O   0  0  0  0  0  0  0  0  0  0  0  0
    6.0167    8.4478   21.1089 C   0  0  0  0  0  0  0  0  0  0  0  0
   11.0002   10.8890   20.0262 C   0  0  0  0  0  0  0  0  0  0  0  0
    2.1721    7.7393   20.0315 O   0  0  0  0  0  0  0  0  0  0  0  0
    9.1107   10.3880   21.3769 N   0  0  0  0  0  0  0  0  0  0  0  0
    3.9102    9.2008   20.3124 C   0  0  0  0  0  0  0  0  0  0  0  0
   12.7292   10.9960   18.4597 C   0  0  0  0  0  0  0  0  0  0  0  0
    9.3798    6.6793   23.6625 C   0  0  0  0  0  0  0  0  0  0  0  0
   14.7425   10.0739   19.0802 O   0  0  0  0  0  0  0  0  0  0  0  0
    5.1894    9.4673   20.7118 C   0  0  0  0  0  0  0  0  0  0  0  0
    7.3773    8.8224   21.4870 C   0  0  0  0  0  0  0  0  0  0  0  0
    8.4391    6.6439   21.0235 C   0  0  0  0  0  0  0  0  0  0  0  0
    9.6494   11.1353   20.4167 C   0  0  0  0  0  0  0  0  0  0  0  0
    8.1431    7.6829   21.9046 C   0  0  0  0  0  0  0  0  0  0  0  0
    7.7796   10.1314   21.5115 N   0  0  0  0  0  0  0  0  0  0  0  0
    9.2768    5.6183   21.4437 C   0  0  0  0  0  0  0  0  0  0  0  0
    8.6315    7.7322   23.1768 C   0  0  0  0  0  0  0  0  0  0  0  0
   13.0537    9.9821   20.5781 C   0  0  0  0  0  0  0  0  0  0  0  0
   10.3850    4.6575   23.2386 O   0  0  0  0  0  0  0  0  0  0  0  0
    4.2069    6.8450   20.7994 C   0  0  0  0  0  0  0  0  0  0  0  0
    3.0726   10.1043   19.8522 O   0  0  0  0  0  0  0  0  0  0  0  0
    5.5057    7.1196   21.1155 C   0  0  0  0  0  0  0  0  0  0  0  0
    7.0367   11.0229   21.9948 O   0  0  0  0  0  0  0  0  0  0  0  0
  1  8  4  0
  1 12  4  0
  2  9  1  0
  2 11  4  0
  2 25  4  0
  3 12  4  0
  3 14  1  0
  3 23  4  0
  4 13  4  0
  4 21  4  0
  4 24  1  0
  5  8  4  0
  5 23  4  0
  6 18  2  0
  7 15  4  0
  7 16  1  0
  7 27  4  0
  8 18  1  0
 10 18  1  0
 10 20  1  0
 11 15  4  0
 11 26  1  0
 13 22  4  0
 16 19  1  0
 16 20  2  0
 17 19  4  0
 17 21  4  0
 19 22  4  0
 20 28  1  0
 25 27  4  0
M  END
$$$$

 Created by Python create_sdf_string function

 28 30  0  0  0  0  0  0  0  0999 V2000
   11.4592   11.2893   18.7941 C   0  0  0  0  0  0  0  0  0  0  0  0
    3.4202    7.9009   20.3866 C   0  0  0  0  0  0  0  0  0  0  0  0
   13.5280   10.3522   19.3586 C   0  0  0  0  0  0  0  0  0  0  0  0
    9.6923    5.6468   22.7891 C   0  0  0  0  0  0  0  0  0  0  0  0
   11.7756   10.2554   20.8841 N   0  0  0  0  0  0  0  0  0  0  0  0
    8.9876   11.9370   19.8757 O   0  0  0  0  0  0  0  0  0  0  0  0
    6.0167    8.4478   21.1089 C   0  0  0  0  0  0  0  0  0  0  0  0
   11.0002   10.8890   20.0262 C   0  0  0  0  0  0  0  0  0  0  0  0
    2.1721    7.7393   20.0315 O   0  0  0  0  0  0  0  0  0  0  0  0
    9.1107   10.3880   21.3769 N   0  0  0  0  0  0  0  0  0  0  0  0
    3.9102    9.2008   20.3124 C   0  0  0  0  0  0  0  0  0  0  0  0
   12.7292   10.9960   18.4597 C   0  0  0  0  0  0  0  0  0  0  0  0
    9.3798    6.6793   23.6625 C   0  0  0  0  0  0  0  0  0  0  0  0
   14.7425   10.0739   19.0802 O   0  0  0  0  0  0  0  0  0  0  0  0
    5.1894    9.4673   20.7118 C   0  0  0  0  0  0  0  0  0  0  0  0
    7.3773    8.8224   21.4870 C   0  0  0  0  0  0  0  0  0  0  0  0
    8.4391    6.6439   21.0235 C   0  0  0  0  0  0  0  0  0  0  0  0
    9.6494   11.1353   20.4167 C   0  0  0  0  0  0  0  0  0  0  0  0
    8.1431    7.6829   21.9046 C   0  0  0  0  0  0  0  0  0  0  0  0
    7.7796   10.1314   21.5115 N   0  0  0  0  0  0  0  0  0  0  0  0
    9.2768    5.6183   21.4437 C   0  0  0  0  0  0  0  0  0  0  0  0
    8.6315    7.7322   23.1768 C   0  0  0  0  0  0  0  0  0  0  0  0
   13.0537    9.9821   20.5781 C   0  0  0  0  0  0  0  0  0  0  0  0
   10.3850    4.6575   23.2386 O   0  0  0  0  0  0  0  0  0  0  0  0
    4.2069    6.8450   20.7994 C   0  0  0  0  0  0  0  0  0  0  0  0
    3.0726   10.1043   19.8522 O   0  0  0  0  0  0  0  0  0  0  0  0
    5.5057    7.1196   21.1155 C   0  0  0  0  0  0  0  0  0  0  0  0
    7.0367   11.0229   21.9948 O   0  0  0  0  0  0  0  0  0  0  0  0
  1  8  4  0
  1 12  4  0
  2  9  1  0
  2 11  4  0
  2 25  4  0
  3 12  4  0
  3 14  1  0
  3 23  4  0
  4 13  4  0
  4 21  4  0
  4 24  1  0
  5  8  4  0
  5 23  4  0
  6 18  2  0
  7 15  4  0
  7 16  1  0
  7 27  4  0
  8 18  1  0
 10 18  1  0
 10 20  1  0
 11 15  4  0
 11 26  1  0
 13 22  4  0
 16 19  1  0
 16 20  2  0
 17 19  4  0
 17 21  4  0
 19 22  4  0
 20 28  1  0
 25 27  4  0
M  END
$$$$

 Created by Python create_sdf_string function

 28 30  0  0  0  0  0  0  0  0999 V2000
   11.4592   11.2893   18.7941 C   0  0  0  0  0  0  0  0  0  0  0  0
    3.4202    7.9009   20.3866 C   0  0  0  0  0  0  0  0  0  0  0  0
   13.5280   10.3522   19.3586 C   0  0  0  0  0  0  0  0  0  0  0  0
    9.6923    5.6468   22.7891 C   0  0  0  0  0  0  0  0  0  0  0  0
   11.7756   10.2554   20.8841 N   0  0  0  0  0  0  0  0  0  0  0  0
    8.9876   11.9370   19.8757 O   0  0  0  0  0  0  0  0  0  0  0  0
    6.0167    8.4478   21.1089 C   0  0  0  0  0  0  0  0  0  0  0  0
   11.0002   10.8890   20.0262 C   0  0  0  0  0  0  0  0  0  0  0  0
    2.1721    7.7393   20.0315 O   0  0  0  0  0  0  0  0  0  0  0  0
    9.1107   10.3880   21.3769 N   0  0  0  0  0  0  0  0  0  0  0  0
    3.9102    9.2008   20.3124 C   0  0  0  0  0  0  0  0  0  0  0  0
   12.7292   10.9960   18.4597 C   0  0  0  0  0  0  0  0  0  0  0  0
    9.3798    6.6793   23.6625 C   0  0  0  0  0  0  0  0  0  0  0  0
   14.7425   10.0739   19.0802 O   0  0  0  0  0  0  0  0  0  0  0  0
    5.1894    9.4673   20.7118 C   0  0  0  0  0  0  0  0  0  0  0  0
    7.3773    8.8224   21.4870 C   0  0  0  0  0  0  0  0  0  0  0  0
    8.4391    6.6439   21.0235 C   0  0  0  0  0  0  0  0  0  0  0  0
    9.6494   11.1353   20.4167 C   0  0  0  0  0  0  0  0  0  0  0  0
    8.1431    7.6829   21.9046 C   0  0  0  0  0  0  0  0  0  0  0  0
    7.7796   10.1314   21.5115 N   0  0  0  0  0  0  0  0  0  0  0  0
    9.2768    5.6183   21.4437 C   0  0  0  0  0  0  0  0  0  0  0  0
    8.6315    7.7322   23.1768 C   0  0  0  0  0  0  0  0  0  0  0  0
   13.0537    9.9821   20.5781 C   0  0  0  0  0  0  0  0  0  0  0  0
   10.3850    4.6575   23.2386 O   0  0  0  0  0  0  0  0  0  0  0  0
    4.2069    6.8450   20.7994 C   0  0  0  0  0  0  0  0  0  0  0  0
    3.0726   10.1043   19.8522 O   0  0  0  0  0  0  0  0  0  0  0  0
    5.5057    7.1196   21.1155 C   0  0  0  0  0  0  0  0  0  0  0  0
    7.0367   11.0229   21.9948 O   0  0  0  0  0  0  0  0  0  0  0  0
  1  8  4  0
  1 12  4  0
  2  9  1  0
  2 11  4  0
  2 25  4  0
  3 12  4  0
  3 14  1  0
  3 23  4  0
  4 13  4  0
  4 21  4  0
  4 24  1  0
  5  8  4  0
  5 23  4  0
  6 18  2  0
  7 15  4  0
  7 16  1  0
  7 27  4  0
  8 18  1  0
 10 18  1  0
 10 20  1  0
 11 15  4  0
 11 26  1  0
 13 22  4  0
 16 19  1  0
 16 20  2  0
 17 19  4  0
 17 21  4  0
 19 22  4  0
 20 28  1  0
 25 27  4  0
M  END
$$$$

 Created by Python create_sdf_string function

 28 30  0  0  0  0  0  0  0  0999 V2000
   11.4592   11.2893   18.7941 C   0  0  0  0  0  0  0  0  0  0  0  0
    3.4202    7.9009   20.3866 C   0  0  0  0  0  0  0  0  0  0  0  0
   13.5280   10.3522   19.3586 C   0  0  0  0  0  0  0  0  0  0  0  0
    9.6923    5.6468   22.7891 C   0  0  0  0  0  0  0  0  0  0  0  0
   11.7756   10.2554   20.8841 N   0  0  0  0  0  0  0  0  0  0  0  0
    8.9876   11.9370   19.8757 O   0  0  0  0  0  0  0  0  0  0  0  0
    6.0167    8.4478   21.1089 C   0  0  0  0  0  0  0  0  0  0  0  0
   11.0002   10.8890   20.0262 C   0  0  0  0  0  0  0  0  0  0  0  0
    2.1721    7.7393   20.0315 O   0  0  0  0  0  0  0  0  0  0  0  0
    9.1107   10.3880   21.3769 N   0  0  0  0  0  0  0  0  0  0  0  0
    3.9102    9.2008   20.3124 C   0  0  0  0  0  0  0  0  0  0  0  0
   12.7292   10.9960   18.4597 C   0  0  0  0  0  0  0  0  0  0  0  0
    9.3798    6.6793   23.6625 C   0  0  0  0  0  0  0  0  0  0  0  0
   14.7425   10.0739   19.0802 O   0  0  0  0  0  0  0  0  0  0  0  0
    5.1894    9.4673   20.7118 C   0  0  0  0  0  0  0  0  0  0  0  0
    7.3773    8.8224   21.4870 C   0  0  0  0  0  0  0  0  0  0  0  0
    8.4391    6.6439   21.0235 C   0  0  0  0  0  0  0  0  0  0  0  0
    9.6494   11.1353   20.4167 C   0  0  0  0  0  0  0  0  0  0  0  0
    8.1431    7.6829   21.9046 C   0  0  0  0  0  0  0  0  0  0  0  0
    7.7796   10.1314   21.5115 N   0  0  0  0  0  0  0  0  0  0  0  0
    9.2768    5.6183   21.4437 C   0  0  0  0  0  0  0  0  0  0  0  0
    8.6315    7.7322   23.1768 C   0  0  0  0  0  0  0  0  0  0  0  0
   13.0537    9.9821   20.5781 C   0  0  0  0  0  0  0  0  0  0  0  0
   10.3850    4.6575   23.2386 O   0  0  0  0  0  0  0  0  0  0  0  0
    4.2069    6.8450   20.7994 C   0  0  0  0  0  0  0  0  0  0  0  0
    3.0726   10.1043   19.8522 O   0  0  0  0  0  0  0  0  0  0  0  0
    5.5057    7.1196   21.1155 C   0  0  0  0  0  0  0  0  0  0  0  0
    7.0367   11.0229   21.9948 O   0  0  0  0  0  0  0  0  0  0  0  0
  1  8  4  0
  1 12  4  0
  2  9  1  0
  2 11  4  0
  2 25  4  0
  3 12  4  0
  3 14  1  0
  3 23  4  0
  4 13  4  0
  4 21  4  0
  4 24  1  0
  5  8  4  0
  5 23  4  0
  6 18  2  0
  7 15  4  0
  7 16  1  0
  7 27  4  0
  8 18  1  0
 10 18  1  0
 10 20  1  0
 11 15  4  0
 11 26  1  0
 13 22  4  0
 16 19  1  0
 16 20  2  0
 17 19  4  0
 17 21  4  0
 19 22  4  0
 20 28  1  0
 25 27  4  0
M  END
$$$$

 Created by Python create_sdf_string function

 28 30  0  0  0  0  0  0  0  0999 V2000
   11.4592   11.2893   18.7941 C   0  0  0  0  0  0  0  0  0  0  0  0
    3.4202    7.9009   20.3866 C   0  0  0  0  0  0  0  0  0  0  0  0
   13.5280   10.3522   19.3586 C   0  0  0  0  0  0  0  0  0  0  0  0
    9.6923    5.6468   22.7891 C   0  0  0  0  0  0  0  0  0  0  0  0
   11.7756   10.2554   20.8841 N   0  0  0  0  0  0  0  0  0  0  0  0
    8.9876   11.9370   19.8757 O   0  0  0  0  0  0  0  0  0  0  0  0
    6.0167    8.4478   21.1089 C   0  0  0  0  0  0  0  0  0  0  0  0
   11.0002   10.8890   20.0262 C   0  0  0  0  0  0  0  0  0  0  0  0
    2.1721    7.7393   20.0315 O   0  0  0  0  0  0  0  0  0  0  0  0
    9.1107   10.3880   21.3769 N   0  0  0  0  0  0  0  0  0  0  0  0
    3.9102    9.2008   20.3124 C   0  0  0  0  0  0  0  0  0  0  0  0
   12.7292   10.9960   18.4597 C   0  0  0  0  0  0  0  0  0  0  0  0
    9.3798    6.6793   23.6625 C   0  0  0  0  0  0  0  0  0  0  0  0
   14.7425   10.0739   19.0802 O   0  0  0  0  0  0  0  0  0  0  0  0
    5.1894    9.4673   20.7118 C   0  0  0  0  0  0  0  0  0  0  0  0
    7.3773    8.8224   21.4870 C   0  0  0  0  0  0  0  0  0  0  0  0
    8.4391    6.6439   21.0235 C   0  0  0  0  0  0  0  0  0  0  0  0
    9.6494   11.1353   20.4167 C   0  0  0  0  0  0  0  0  0  0  0  0
    8.1431    7.6829   21.9046 C   0  0  0  0  0  0  0  0  0  0  0  0
    7.7796   10.1314   21.5115 N   0  0  0  0  0  0  0  0  0  0  0  0
    9.2768    5.6183   21.4437 C   0  0  0  0  0  0  0  0  0  0  0  0
    8.6315    7.7322   23.1768 C   0  0  0  0  0  0  0  0  0  0  0  0
   13.0537    9.9821   20.5781 C   0  0  0  0  0  0  0  0  0  0  0  0
   10.3850    4.6575   23.2386 O   0  0  0  0  0  0  0  0  0  0  0  0
    4.2069    6.8450   20.7994 C   0  0  0  0  0  0  0  0  0  0  0  0
    3.0726   10.1043   19.8522 O   0  0  0  0  0  0  0  0  0  0  0  0
    5.5057    7.1196   21.1155 C   0  0  0  0  0  0  0  0  0  0  0  0
    7.0367   11.0229   21.9948 O   0  0  0  0  0  0  0  0  0  0  0  0
  1  8  4  0
  1 12  4  0
  2  9  1  0
  2 11  4  0
  2 25  4  0
  3 12  4  0
  3 14  1  0
  3 23  4  0
  4 13  4  0
  4 21  4  0
  4 24  1  0
  5  8  4  0
  5 23  4  0
  6 18  2  0
  7 15  4  0
  7 16  1  0
  7 27  4  0
  8 18  1  0
 10 18  1  0
 10 20  1  0
 11 15  4  0
 11 26  1  0
 13 22  4  0
 16 19  1  0
 16 20  2  0
 17 19  4  0
 17 21  4  0
 19 22  4  0
 20 28  1  0
 25 27  4  0
M  END
$$$$

 Created by Python create_sdf_string function

 28 30  0  0  0  0  0  0  0  0999 V2000
   11.4592   11.2893   18.7941 C   0  0  0  0  0  0  0  0  0  0  0  0
    3.4202    7.9009   20.3866 C   0  0  0  0  0  0  0  0  0  0  0  0
   13.5280   10.3522   19.3586 C   0  0  0  0  0  0  0  0  0  0  0  0
    9.6923    5.6468   22.7891 C   0  0  0  0  0  0  0  0  0  0  0  0
   11.7756   10.2554   20.8841 N   0  0  0  0  0  0  0  0  0  0  0  0
    8.9876   11.9370   19.8757 O   0  0  0  0  0  0  0  0  0  0  0  0
    6.0167    8.4478   21.1089 C   0  0  0  0  0  0  0  0  0  0  0  0
   11.0002   10.8890   20.0262 C   0  0  0  0  0  0  0  0  0  0  0  0
    2.1721    7.7393   20.0315 O   0  0  0  0  0  0  0  0  0  0  0  0
    9.1107   10.3880   21.3769 N   0  0  0  0  0  0  0  0  0  0  0  0
    3.9102    9.2008   20.3124 C   0  0  0  0  0  0  0  0  0  0  0  0
   12.7292   10.9960   18.4597 C   0  0  0  0  0  0  0  0  0  0  0  0
    9.3798    6.6793   23.6625 C   0  0  0  0  0  0  0  0  0  0  0  0
   14.7425   10.0739   19.0802 O   0  0  0  0  0  0  0  0  0  0  0  0
    5.1894    9.4673   20.7118 C   0  0  0  0  0  0  0  0  0  0  0  0
    7.3773    8.8224   21.4870 C   0  0  0  0  0  0  0  0  0  0  0  0
    8.4391    6.6439   21.0235 C   0  0  0  0  0  0  0  0  0  0  0  0
    9.6494   11.1353   20.4167 C   0  0  0  0  0  0  0  0  0  0  0  0
    8.1431    7.6829   21.9046 C   0  0  0  0  0  0  0  0  0  0  0  0
    7.7796   10.1314   21.5115 N   0  0  0  0  0  0  0  0  0  0  0  0
    9.2768    5.6183   21.4437 C   0  0  0  0  0  0  0  0  0  0  0  0
    8.6315    7.7322   23.1768 C   0  0  0  0  0  0  0  0  0  0  0  0
   13.0537    9.9821   20.5781 C   0  0  0  0  0  0  0  0  0  0  0  0
   10.3850    4.6575   23.2386 O   0  0  0  0  0  0  0  0  0  0  0  0
    4.2069    6.8450   20.7994 C   0  0  0  0  0  0  0  0  0  0  0  0
    3.0726   10.1043   19.8522 O   0  0  0  0  0  0  0  0  0  0  0  0
    5.5057    7.1196   21.1155 C   0  0  0  0  0  0  0  0  0  0  0  0
    7.0367   11.0229   21.9948 O   0  0  0  0  0  0  0  0  0  0  0  0
  1  8  4  0
  1 12  4  0
  2  9  1  0
  2 11  4  0
  2 25  4  0
  3 12  4  0
  3 14  1  0
  3 23  4  0
  4 13  4  0
  4 21  4  0
  4 24  1  0
  5  8  4  0
  5 23  4  0
  6 18  2  0
  7 15  4  0
  7 16  1  0
  7 27  4  0
  8 18  1  0
 10 18  1  0
 10 20  1  0
 11 15  4  0
 11 26  1  0
 13 22  4  0
 16 19  1  0
 16 20  2  0
 17 19  4  0
 17 21  4  0
 19 22  4  0
 20 28  1  0
 25 27  4  0
M  END
$$$$

 Created by Python create_sdf_string function

 28 30  0  0  0  0  0  0  0  0999 V2000
   11.4592   11.2893   18.7941 C   0  0  0  0  0  0  0  0  0  0  0  0
    3.4202    7.9009   20.3866 C   0  0  0  0  0  0  0  0  0  0  0  0
   13.5280   10.3522   19.3586 C   0  0  0  0  0  0  0  0  0  0  0  0
    9.6923    5.6468   22.7891 C   0  0  0  0  0  0  0  0  0  0  0  0
   11.7756   10.2554   20.8841 N   0  0  0  0  0  0  0  0  0  0  0  0
    8.9876   11.9370   19.8757 O   0  0  0  0  0  0  0  0  0  0  0  0
    6.0167    8.4478   21.1089 C   0  0  0  0  0  0  0  0  0  0  0  0
   11.0002   10.8890   20.0262 C   0  0  0  0  0  0  0  0  0  0  0  0
    2.1721    7.7393   20.0315 O   0  0  0  0  0  0  0  0  0  0  0  0
    9.1107   10.3880   21.3769 N   0  0  0  0  0  0  0  0  0  0  0  0
    3.9102    9.2008   20.3124 C   0  0  0  0  0  0  0  0  0  0  0  0
   12.7292   10.9960   18.4597 C   0  0  0  0  0  0  0  0  0  0  0  0
    9.3798    6.6793   23.6625 C   0  0  0  0  0  0  0  0  0  0  0  0
   14.7425   10.0739   19.0802 O   0  0  0  0  0  0  0  0  0  0  0  0
    5.1894    9.4673   20.7118 C   0  0  0  0  0  0  0  0  0  0  0  0
    7.3773    8.8224   21.4870 C   0  0  0  0  0  0  0  0  0  0  0  0
    8.4391    6.6439   21.0235 C   0  0  0  0  0  0  0  0  0  0  0  0
    9.6494   11.1353   20.4167 C   0  0  0  0  0  0  0  0  0  0  0  0
    8.1431    7.6829   21.9046 C   0  0  0  0  0  0  0  0  0  0  0  0
    7.7796   10.1314   21.5115 N   0  0  0  0  0  0  0  0  0  0  0  0
    9.2768    5.6183   21.4437 C   0  0  0  0  0  0  0  0  0  0  0  0
    8.6315    7.7322   23.1768 C   0  0  0  0  0  0  0  0  0  0  0  0
   13.0537    9.9821   20.5781 C   0  0  0  0  0  0  0  0  0  0  0  0
   10.3850    4.6575   23.2386 O   0  0  0  0  0  0  0  0  0  0  0  0
    4.2069    6.8450   20.7994 C   0  0  0  0  0  0  0  0  0  0  0  0
    3.0726   10.1043   19.8522 O   0  0  0  0  0  0  0  0  0  0  0  0
    5.5057    7.1196   21.1155 C   0  0  0  0  0  0  0  0  0  0  0  0
    7.0367   11.0229   21.9948 O   0  0  0  0  0  0  0  0  0  0  0  0
  1  8  4  0
  1 12  4  0
  2  9  1  0
  2 11  4  0
  2 25  4  0
  3 12  4  0
  3 14  1  0
  3 23  4  0
  4 13  4  0
  4 21  4  0
  4 24  1  0
  5  8  4  0
  5 23  4  0
  6 18  2  0
  7 15  4  0
  7 16  1  0
  7 27  4  0
  8 18  1  0
 10 18  1  0
 10 20  1  0
 11 15  4  0
 11 26  1  0
 13 22  4  0
 16 19  1  0
 16 20  2  0
 17 19  4  0
 17 21  4  0
 19 22  4  0
 20 28  1  0
 25 27  4  0
M  END
$$$$

 Created by Python create_sdf_string function

 28 30  0  0  0  0  0  0  0  0999 V2000
   11.4592   11.2893   18.7941 C   0  0  0  0  0  0  0  0  0  0  0  0
    3.4202    7.9009   20.3866 C   0  0  0  0  0  0  0  0  0  0  0  0
   13.5280   10.3522   19.3586 C   0  0  0  0  0  0  0  0  0  0  0  0
    9.6923    5.6468   22.7891 C   0  0  0  0  0  0  0  0  0  0  0  0
   11.7756   10.2554   20.8841 N   0  0  0  0  0  0  0  0  0  0  0  0
    8.9876   11.9370   19.8757 O   0  0  0  0  0  0  0  0  0  0  0  0
    6.0167    8.4478   21.1089 C   0  0  0  0  0  0  0  0  0  0  0  0
   11.0002   10.8890   20.0262 C   0  0  0  0  0  0  0  0  0  0  0  0
    2.1721    7.7393   20.0315 O   0  0  0  0  0  0  0  0  0  0  0  0
    9.1107   10.3880   21.3769 N   0  0  0  0  0  0  0  0  0  0  0  0
    3.9102    9.2008   20.3124 C   0  0  0  0  0  0  0  0  0  0  0  0
   12.7292   10.9960   18.4597 C   0  0  0  0  0  0  0  0  0  0  0  0
    9.3798    6.6793   23.6625 C   0  0  0  0  0  0  0  0  0  0  0  0
   14.7425   10.0739   19.0802 O   0  0  0  0  0  0  0  0  0  0  0  0
    5.1894    9.4673   20.7118 C   0  0  0  0  0  0  0  0  0  0  0  0
    7.3773    8.8224   21.4870 C   0  0  0  0  0  0  0  0  0  0  0  0
    8.4391    6.6439   21.0235 C   0  0  0  0  0  0  0  0  0  0  0  0
    9.6494   11.1353   20.4167 C   0  0  0  0  0  0  0  0  0  0  0  0
    8.1431    7.6829   21.9046 C   0  0  0  0  0  0  0  0  0  0  0  0
    7.7796   10.1314   21.5115 N   0  0  0  0  0  0  0  0  0  0  0  0
    9.2768    5.6183   21.4437 C   0  0  0  0  0  0  0  0  0  0  0  0
    8.6315    7.7322   23.1768 C   0  0  0  0  0  0  0  0  0  0  0  0
   13.0537    9.9821   20.5781 C   0  0  0  0  0  0  0  0  0  0  0  0
   10.3850    4.6575   23.2386 O   0  0  0  0  0  0  0  0  0  0  0  0
    4.2069    6.8450   20.7994 C   0  0  0  0  0  0  0  0  0  0  0  0
    3.0726   10.1043   19.8522 O   0  0  0  0  0  0  0  0  0  0  0  0
    5.5057    7.1196   21.1155 C   0  0  0  0  0  0  0  0  0  0  0  0
    7.0367   11.0229   21.9948 O   0  0  0  0  0  0  0  0  0  0  0  0
  1  8  4  0
  1 12  4  0
  2  9  1  0
  2 11  4  0
  2 25  4  0
  3 12  4  0
  3 14  1  0
  3 23  4  0
  4 13  4  0
  4 21  4  0
  4 24  1  0
  5  8  4  0
  5 23  4  0
  6 18  2  0
  7 15  4  0
  7 16  1  0
  7 27  4  0
  8 18  1  0
 10 18  1  0
 10 20  1  0
 11 15  4  0
 11 26  1  0
 13 22  4  0
 16 19  1  0
 16 20  2  0
 17 19  4  0
 17 21  4  0
 19 22  4  0
 20 28  1  0
 25 27  4  0
M  END
$$$$

 Created by Python create_sdf_string function

 28 30  0  0  0  0  0  0  0  0999 V2000
   11.4592   11.2893   18.7941 C   0  0  0  0  0  0  0  0  0  0  0  0
    3.4202    7.9009   20.3866 C   0  0  0  0  0  0  0  0  0  0  0  0
   13.5280   10.3522   19.3586 C   0  0  0  0  0  0  0  0  0  0  0  0
    9.6923    5.6468   22.7891 C   0  0  0  0  0  0  0  0  0  0  0  0
   11.7756   10.2554   20.8841 N   0  0  0  0  0  0  0  0  0  0  0  0
    8.9876   11.9370   19.8757 O   0  0  0  0  0  0  0  0  0  0  0  0
    6.0167    8.4478   21.1089 C   0  0  0  0  0  0  0  0  0  0  0  0
   11.0002   10.8890   20.0262 C   0  0  0  0  0  0  0  0  0  0  0  0
    2.1721    7.7393   20.0315 O   0  0  0  0  0  0  0  0  0  0  0  0
    9.1107   10.3880   21.3769 N   0  0  0  0  0  0  0  0  0  0  0  0
    3.9102    9.2008   20.3124 C   0  0  0  0  0  0  0  0  0  0  0  0
   12.7292   10.9960   18.4597 C   0  0  0  0  0  0  0  0  0  0  0  0
    9.3798    6.6793   23.6625 C   0  0  0  0  0  0  0  0  0  0  0  0
   14.7425   10.0739   19.0802 O   0  0  0  0  0  0  0  0  0  0  0  0
    5.1894    9.4673   20.7118 C   0  0  0  0  0  0  0  0  0  0  0  0
    7.3773    8.8224   21.4870 C   0  0  0  0  0  0  0  0  0  0  0  0
    8.4391    6.6439   21.0235 C   0  0  0  0  0  0  0  0  0  0  0  0
    9.6494   11.1353   20.4167 C   0  0  0  0  0  0  0  0  0  0  0  0
    8.1431    7.6829   21.9046 C   0  0  0  0  0  0  0  0  0  0  0  0
    7.7796   10.1314   21.5115 N   0  0  0  0  0  0  0  0  0  0  0  0
    9.2768    5.6183   21.4437 C   0  0  0  0  0  0  0  0  0  0  0  0
    8.6315    7.7322   23.1768 C   0  0  0  0  0  0  0  0  0  0  0  0
   13.0537    9.9821   20.5781 C   0  0  0  0  0  0  0  0  0  0  0  0
   10.3850    4.6575   23.2386 O   0  0  0  0  0  0  0  0  0  0  0  0
    4.2069    6.8450   20.7994 C   0  0  0  0  0  0  0  0  0  0  0  0
    3.0726   10.1043   19.8522 O   0  0  0  0  0  0  0  0  0  0  0  0
    5.5057    7.1196   21.1155 C   0  0  0  0  0  0  0  0  0  0  0  0
    7.0367   11.0229   21.9948 O   0  0  0  0  0  0  0  0  0  0  0  0
  1  8  4  0
  1 12  4  0
  2  9  1  0
  2 11  4  0
  2 25  4  0
  3 12  4  0
  3 14  1  0
  3 23  4  0
  4 13  4  0
  4 21  4  0
  4 24  1  0
  5  8  4  0
  5 23  4  0
  6 18  2  0
  7 15  4  0
  7 16  1  0
  7 27  4  0
  8 18  1  0
 10 18  1  0
 10 20  1  0
 11 15  4  0
 11 26  1  0
 13 22  4  0
 16 19  1  0
 16 20  2  0
 17 19  4  0
 17 21  4  0
 19 22  4  0
 20 28  1  0
 25 27  4  0
M  END
$$$$

 Created by Python create_sdf_string function

 28 30  0  0  0  0  0  0  0  0999 V2000
   11.4592   11.2893   18.7941 C   0  0  0  0  0  0  0  0  0  0  0  0
    3.4202    7.9009   20.3866 C   0  0  0  0  0  0  0  0  0  0  0  0
   13.5280   10.3522   19.3586 C   0  0  0  0  0  0  0  0  0  0  0  0
    9.6923    5.6468   22.7891 C   0  0  0  0  0  0  0  0  0  0  0  0
   11.7756   10.2554   20.8841 N   0  0  0  0  0  0  0  0  0  0  0  0
    8.9876   11.9370   19.8757 O   0  0  0  0  0  0  0  0  0  0  0  0
    6.0167    8.4478   21.1089 C   0  0  0  0  0  0  0  0  0  0  0  0
   11.0002   10.8890   20.0262 C   0  0  0  0  0  0  0  0  0  0  0  0
    2.1721    7.7393   20.0315 O   0  0  0  0  0  0  0  0  0  0  0  0
    9.1107   10.3880   21.3769 N   0  0  0  0  0  0  0  0  0  0  0  0
    3.9102    9.2008   20.3124 C   0  0  0  0  0  0  0  0  0  0  0  0
   12.7292   10.9960   18.4597 C   0  0  0  0  0  0  0  0  0  0  0  0
    9.3798    6.6793   23.6625 C   0  0  0  0  0  0  0  0  0  0  0  0
   14.7425   10.0739   19.0802 O   0  0  0  0  0  0  0  0  0  0  0  0
    5.1894    9.4673   20.7118 C   0  0  0  0  0  0  0  0  0  0  0  0
    7.3773    8.8224   21.4870 C   0  0  0  0  0  0  0  0  0  0  0  0
    8.4391    6.6439   21.0235 C   0  0  0  0  0  0  0  0  0  0  0  0
    9.6494   11.1353   20.4167 C   0  0  0  0  0  0  0  0  0  0  0  0
    8.1431    7.6829   21.9046 C   0  0  0  0  0  0  0  0  0  0  0  0
    7.7796   10.1314   21.5115 N   0  0  0  0  0  0  0  0  0  0  0  0
    9.2768    5.6183   21.4437 C   0  0  0  0  0  0  0  0  0  0  0  0
    8.6315    7.7322   23.1768 C   0  0  0  0  0  0  0  0  0  0  0  0
   13.0537    9.9821   20.5781 C   0  0  0  0  0  0  0  0  0  0  0  0
   10.3850    4.6575   23.2386 O   0  0  0  0  0  0  0  0  0  0  0  0
    4.2069    6.8450   20.7994 C   0  0  0  0  0  0  0  0  0  0  0  0
    3.0726   10.1043   19.8522 O   0  0  0  0  0  0  0  0  0  0  0  0
    5.5057    7.1196   21.1155 C   0  0  0  0  0  0  0  0  0  0  0  0
    7.0367   11.0229   21.9948 O   0  0  0  0  0  0  0  0  0  0  0  0
  1  8  4  0
  1 12  4  0
  2  9  1  0
  2 11  4  0
  2 25  4  0
  3 12  4  0
  3 14  1  0
  3 23  4  0
  4 13  4  0
  4 21  4  0
  4 24  1  0
  5  8  4  0
  5 23  4  0
  6 18  2  0
  7 15  4  0
  7 16  1  0
  7 27  4  0
  8 18  1  0
 10 18  1  0
 10 20  1  0
 11 15  4  0
 11 26  1  0
 13 22  4  0
 16 19  1  0
 16 20  2  0
 17 19  4  0
 17 21  4  0
 19 22  4  0
 20 28  1  0
 25 27  4  0
M  END
$$$$

 Created by Python create_sdf_string function

 28 30  0  0  0  0  0  0  0  0999 V2000
   11.4592   11.2893   18.7941 C   0  0  0  0  0  0  0  0  0  0  0  0
    3.4202    7.9009   20.3866 C   0  0  0  0  0  0  0  0  0  0  0  0
   13.5280   10.3522   19.3586 C   0  0  0  0  0  0  0  0  0  0  0  0
    9.6923    5.6468   22.7891 C   0  0  0  0  0  0  0  0  0  0  0  0
   11.7756   10.2554   20.8841 N   0  0  0  0  0  0  0  0  0  0  0  0
    8.9876   11.9370   19.8757 O   0  0  0  0  0  0  0  0  0  0  0  0
    6.0167    8.4478   21.1089 C   0  0  0  0  0  0  0  0  0  0  0  0
   11.0002   10.8890   20.0262 C   0  0  0  0  0  0  0  0  0  0  0  0
    2.1721    7.7393   20.0315 O   0  0  0  0  0  0  0  0  0  0  0  0
    9.1107   10.3880   21.3769 N   0  0  0  0  0  0  0  0  0  0  0  0
    3.9102    9.2008   20.3124 C   0  0  0  0  0  0  0  0  0  0  0  0
   12.7292   10.9960   18.4597 C   0  0  0  0  0  0  0  0  0  0  0  0
    9.3798    6.6793   23.6625 C   0  0  0  0  0  0  0  0  0  0  0  0
   14.7425   10.0739   19.0802 O   0  0  0  0  0  0  0  0  0  0  0  0
    5.1894    9.4673   20.7118 C   0  0  0  0  0  0  0  0  0  0  0  0
    7.3773    8.8224   21.4870 C   0  0  0  0  0  0  0  0  0  0  0  0
    8.4391    6.6439   21.0235 C   0  0  0  0  0  0  0  0  0  0  0  0
    9.6494   11.1353   20.4167 C   0  0  0  0  0  0  0  0  0  0  0  0
    8.1431    7.6829   21.9046 C   0  0  0  0  0  0  0  0  0  0  0  0
    7.7796   10.1314   21.5115 N   0  0  0  0  0  0  0  0  0  0  0  0
    9.2768    5.6183   21.4437 C   0  0  0  0  0  0  0  0  0  0  0  0
    8.6315    7.7322   23.1768 C   0  0  0  0  0  0  0  0  0  0  0  0
   13.0537    9.9821   20.5781 C   0  0  0  0  0  0  0  0  0  0  0  0
   10.3850    4.6575   23.2386 O   0  0  0  0  0  0  0  0  0  0  0  0
    4.2069    6.8450   20.7994 C   0  0  0  0  0  0  0  0  0  0  0  0
    3.0726   10.1043   19.8522 O   0  0  0  0  0  0  0  0  0  0  0  0
    5.5057    7.1196   21.1155 C   0  0  0  0  0  0  0  0  0  0  0  0
    7.0367   11.0229   21.9948 O   0  0  0  0  0  0  0  0  0  0  0  0
  1  8  4  0
  1 12  4  0
  2  9  1  0
  2 11  4  0
  2 25  4  0
  3 12  4  0
  3 14  1  0
  3 23  4  0
  4 13  4  0
  4 21  4  0
  4 24  1  0
  5  8  4  0
  5 23  4  0
  6 18  2  0
  7 15  4  0
  7 16  1  0
  7 27  4  0
  8 18  1  0
 10 18  1  0
 10 20  1  0
 11 15  4  0
 11 26  1  0
 13 22  4  0
 16 19  1  0
 16 20  2  0
 17 19  4  0
 17 21  4  0
 19 22  4  0
 20 28  1  0
 25 27  4  0
M  END
$$$$

 Created by Python create_sdf_string function

 28 30  0  0  0  0  0  0  0  0999 V2000
   11.4592   11.2893   18.7941 C   0  0  0  0  0  0  0  0  0  0  0  0
    3.4202    7.9009   20.3866 C   0  0  0  0  0  0  0  0  0  0  0  0
   13.5280   10.3522   19.3586 C   0  0  0  0  0  0  0  0  0  0  0  0
    9.6923    5.6468   22.7891 C   0  0  0  0  0  0  0  0  0  0  0  0
   11.7756   10.2554   20.8841 N   0  0  0  0  0  0  0  0  0  0  0  0
    8.9876   11.9370   19.8757 O   0  0  0  0  0  0  0  0  0  0  0  0
    6.0167    8.4478   21.1089 C   0  0  0  0  0  0  0  0  0  0  0  0
   11.0002   10.8890   20.0262 C   0  0  0  0  0  0  0  0  0  0  0  0
    2.1721    7.7393   20.0315 O   0  0  0  0  0  0  0  0  0  0  0  0
    9.1107   10.3880   21.3769 N   0  0  0  0  0  0  0  0  0  0  0  0
    3.9102    9.2008   20.3124 C   0  0  0  0  0  0  0  0  0  0  0  0
   12.7292   10.9960   18.4597 C   0  0  0  0  0  0  0  0  0  0  0  0
    9.3798    6.6793   23.6625 C   0  0  0  0  0  0  0  0  0  0  0  0
   14.7425   10.0739   19.0802 O   0  0  0  0  0  0  0  0  0  0  0  0
    5.1894    9.4673   20.7118 C   0  0  0  0  0  0  0  0  0  0  0  0
    7.3773    8.8224   21.4870 C   0  0  0  0  0  0  0  0  0  0  0  0
    8.4391    6.6439   21.0235 C   0  0  0  0  0  0  0  0  0  0  0  0
    9.6494   11.1353   20.4167 C   0  0  0  0  0  0  0  0  0  0  0  0
    8.1431    7.6829   21.9046 C   0  0  0  0  0  0  0  0  0  0  0  0
    7.7796   10.1314   21.5115 N   0  0  0  0  0  0  0  0  0  0  0  0
    9.2768    5.6183   21.4437 C   0  0  0  0  0  0  0  0  0  0  0  0
    8.6315    7.7322   23.1768 C   0  0  0  0  0  0  0  0  0  0  0  0
   13.0537    9.9821   20.5781 C   0  0  0  0  0  0  0  0  0  0  0  0
   10.3850    4.6575   23.2386 O   0  0  0  0  0  0  0  0  0  0  0  0
    4.2069    6.8450   20.7994 C   0  0  0  0  0  0  0  0  0  0  0  0
    3.0726   10.1043   19.8522 O   0  0  0  0  0  0  0  0  0  0  0  0
    5.5057    7.1196   21.1155 C   0  0  0  0  0  0  0  0  0  0  0  0
    7.0367   11.0229   21.9948 O   0  0  0  0  0  0  0  0  0  0  0  0
  1  8  4  0
  1 12  4  0
  2  9  1  0
  2 11  4  0
  2 25  4  0
  3 12  4  0
  3 14  1  0
  3 23  4  0
  4 13  4  0
  4 21  4  0
  4 24  1  0
  5  8  4  0
  5 23  4  0
  6 18  2  0
  7 15  4  0
  7 16  1  0
  7 27  4  0
  8 18  1  0
 10 18  1  0
 10 20  1  0
 11 15  4  0
 11 26  1  0
 13 22  4  0
 16 19  1  0
 16 20  2  0
 17 19  4  0
 17 21  4  0
 19 22  4  0
 20 28  1  0
 25 27  4  0
M  END
$$$$

 Created by Python create_sdf_string function

 28 30  0  0  0  0  0  0  0  0999 V2000
   11.4592   11.2893   18.7941 C   0  0  0  0  0  0  0  0  0  0  0  0
    3.4202    7.9009   20.3866 C   0  0  0  0  0  0  0  0  0  0  0  0
   13.5280   10.3522   19.3586 C   0  0  0  0  0  0  0  0  0  0  0  0
    9.6923    5.6468   22.7891 C   0  0  0  0  0  0  0  0  0  0  0  0
   11.7756   10.2554   20.8841 N   0  0  0  0  0  0  0  0  0  0  0  0
    8.9876   11.9370   19.8757 O   0  0  0  0  0  0  0  0  0  0  0  0
    6.0167    8.4478   21.1089 C   0  0  0  0  0  0  0  0  0  0  0  0
   11.0002   10.8890   20.0262 C   0  0  0  0  0  0  0  0  0  0  0  0
    2.1721    7.7393   20.0315 O   0  0  0  0  0  0  0  0  0  0  0  0
    9.1107   10.3880   21.3769 N   0  0  0  0  0  0  0  0  0  0  0  0
    3.9102    9.2008   20.3124 C   0  0  0  0  0  0  0  0  0  0  0  0
   12.7292   10.9960   18.4597 C   0  0  0  0  0  0  0  0  0  0  0  0
    9.3798    6.6793   23.6625 C   0  0  0  0  0  0  0  0  0  0  0  0
   14.7425   10.0739   19.0802 O   0  0  0  0  0  0  0  0  0  0  0  0
    5.1894    9.4673   20.7118 C   0  0  0  0  0  0  0  0  0  0  0  0
    7.3773    8.8224   21.4870 C   0  0  0  0  0  0  0  0  0  0  0  0
    8.4391    6.6439   21.0235 C   0  0  0  0  0  0  0  0  0  0  0  0
    9.6494   11.1353   20.4167 C   0  0  0  0  0  0  0  0  0  0  0  0
    8.1431    7.6829   21.9046 C   0  0  0  0  0  0  0  0  0  0  0  0
    7.7796   10.1314   21.5115 N   0  0  0  0  0  0  0  0  0  0  0  0
    9.2768    5.6183   21.4437 C   0  0  0  0  0  0  0  0  0  0  0  0
    8.6315    7.7322   23.1768 C   0  0  0  0  0  0  0  0  0  0  0  0
   13.0537    9.9821   20.5781 C   0  0  0  0  0  0  0  0  0  0  0  0
   10.3850    4.6575   23.2386 O   0  0  0  0  0  0  0  0  0  0  0  0
    4.2069    6.8450   20.7994 C   0  0  0  0  0  0  0  0  0  0  0  0
    3.0726   10.1043   19.8522 O   0  0  0  0  0  0  0  0  0  0  0  0
    5.5057    7.1196   21.1155 C   0  0  0  0  0  0  0  0  0  0  0  0
    7.0367   11.0229   21.9948 O   0  0  0  0  0  0  0  0  0  0  0  0
  1  8  4  0
  1 12  4  0
  2  9  1  0
  2 11  4  0
  2 25  4  0
  3 12  4  0
  3 14  1  0
  3 23  4  0
  4 13  4  0
  4 21  4  0
  4 24  1  0
  5  8  4  0
  5 23  4  0
  6 18  2  0
  7 15  4  0
  7 16  1  0
  7 27  4  0
  8 18  1  0
 10 18  1  0
 10 20  1  0
 11 15  4  0
 11 26  1  0
 13 22  4  0
 16 19  1  0
 16 20  2  0
 17 19  4  0
 17 21  4  0
 19 22  4  0
 20 28  1  0
 25 27  4  0
M  END
$$$$

 Created by Python create_sdf_string function

 28 30  0  0  0  0  0  0  0  0999 V2000
   11.4592   11.2893   18.7941 C   0  0  0  0  0  0  0  0  0  0  0  0
    3.4202    7.9009   20.3866 C   0  0  0  0  0  0  0  0  0  0  0  0
   13.5280   10.3522   19.3586 C   0  0  0  0  0  0  0  0  0  0  0  0
    9.6923    5.6468   22.7891 C   0  0  0  0  0  0  0  0  0  0  0  0
   11.7756   10.2554   20.8841 N   0  0  0  0  0  0  0  0  0  0  0  0
    8.9876   11.9370   19.8757 O   0  0  0  0  0  0  0  0  0  0  0  0
    6.0167    8.4478   21.1089 C   0  0  0  0  0  0  0  0  0  0  0  0
   11.0002   10.8890   20.0262 C   0  0  0  0  0  0  0  0  0  0  0  0
    2.1721    7.7393   20.0315 O   0  0  0  0  0  0  0  0  0  0  0  0
    9.1107   10.3880   21.3769 N   0  0  0  0  0  0  0  0  0  0  0  0
    3.9102    9.2008   20.3124 C   0  0  0  0  0  0  0  0  0  0  0  0
   12.7292   10.9960   18.4597 C   0  0  0  0  0  0  0  0  0  0  0  0
    9.3798    6.6793   23.6625 C   0  0  0  0  0  0  0  0  0  0  0  0
   14.7425   10.0739   19.0802 O   0  0  0  0  0  0  0  0  0  0  0  0
    5.1894    9.4673   20.7118 C   0  0  0  0  0  0  0  0  0  0  0  0
    7.3773    8.8224   21.4870 C   0  0  0  0  0  0  0  0  0  0  0  0
    8.4391    6.6439   21.0235 C   0  0  0  0  0  0  0  0  0  0  0  0
    9.6494   11.1353   20.4167 C   0  0  0  0  0  0  0  0  0  0  0  0
    8.1431    7.6829   21.9046 C   0  0  0  0  0  0  0  0  0  0  0  0
    7.7796   10.1314   21.5115 N   0  0  0  0  0  0  0  0  0  0  0  0
    9.2768    5.6183   21.4437 C   0  0  0  0  0  0  0  0  0  0  0  0
    8.6315    7.7322   23.1768 C   0  0  0  0  0  0  0  0  0  0  0  0
   13.0537    9.9821   20.5781 C   0  0  0  0  0  0  0  0  0  0  0  0
   10.3850    4.6575   23.2386 O   0  0  0  0  0  0  0  0  0  0  0  0
    4.2069    6.8450   20.7994 C   0  0  0  0  0  0  0  0  0  0  0  0
    3.0726   10.1043   19.8522 O   0  0  0  0  0  0  0  0  0  0  0  0
    5.5057    7.1196   21.1155 C   0  0  0  0  0  0  0  0  0  0  0  0
    7.0367   11.0229   21.9948 O   0  0  0  0  0  0  0  0  0  0  0  0
  1  8  4  0
  1 12  4  0
  2  9  1  0
  2 11  4  0
  2 25  4  0
  3 12  4  0
  3 14  1  0
  3 23  4  0
  4 13  4  0
  4 21  4  0
  4 24  1  0
  5  8  4  0
  5 23  4  0
  6 18  2  0
  7 15  4  0
  7 16  1  0
  7 27  4  0
  8 18  1  0
 10 18  1  0
 10 20  1  0
 11 15  4  0
 11 26  1  0
 13 22  4  0
 16 19  1  0
 16 20  2  0
 17 19  4  0
 17 21  4  0
 19 22  4  0
 20 28  1  0
 25 27  4  0
M  END
$$$$

 Created by Python create_sdf_string function

 28 30  0  0  0  0  0  0  0  0999 V2000
   11.4592   11.2893   18.7941 C   0  0  0  0  0  0  0  0  0  0  0  0
    3.4202    7.9009   20.3866 C   0  0  0  0  0  0  0  0  0  0  0  0
   13.5280   10.3522   19.3586 C   0  0  0  0  0  0  0  0  0  0  0  0
    9.6923    5.6468   22.7891 C   0  0  0  0  0  0  0  0  0  0  0  0
   11.7756   10.2554   20.8841 N   0  0  0  0  0  0  0  0  0  0  0  0
    8.9876   11.9370   19.8757 O   0  0  0  0  0  0  0  0  0  0  0  0
    6.0167    8.4478   21.1089 C   0  0  0  0  0  0  0  0  0  0  0  0
   11.0002   10.8890   20.0262 C   0  0  0  0  0  0  0  0  0  0  0  0
    2.1721    7.7393   20.0315 O   0  0  0  0  0  0  0  0  0  0  0  0
    9.1107   10.3880   21.3769 N   0  0  0  0  0  0  0  0  0  0  0  0
    3.9102    9.2008   20.3124 C   0  0  0  0  0  0  0  0  0  0  0  0
   12.7292   10.9960   18.4597 C   0  0  0  0  0  0  0  0  0  0  0  0
    9.3798    6.6793   23.6625 C   0  0  0  0  0  0  0  0  0  0  0  0
   14.7425   10.0739   19.0802 O   0  0  0  0  0  0  0  0  0  0  0  0
    5.1894    9.4673   20.7118 C   0  0  0  0  0  0  0  0  0  0  0  0
    7.3773    8.8224   21.4870 C   0  0  0  0  0  0  0  0  0  0  0  0
    8.4391    6.6439   21.0235 C   0  0  0  0  0  0  0  0  0  0  0  0
    9.6494   11.1353   20.4167 C   0  0  0  0  0  0  0  0  0  0  0  0
    8.1431    7.6829   21.9046 C   0  0  0  0  0  0  0  0  0  0  0  0
    7.7796   10.1314   21.5115 N   0  0  0  0  0  0  0  0  0  0  0  0
    9.2768    5.6183   21.4437 C   0  0  0  0  0  0  0  0  0  0  0  0
    8.6315    7.7322   23.1768 C   0  0  0  0  0  0  0  0  0  0  0  0
   13.0537    9.9821   20.5781 C   0  0  0  0  0  0  0  0  0  0  0  0
   10.3850    4.6575   23.2386 O   0  0  0  0  0  0  0  0  0  0  0  0
    4.2069    6.8450   20.7994 C   0  0  0  0  0  0  0  0  0  0  0  0
    3.0726   10.1043   19.8522 O   0  0  0  0  0  0  0  0  0  0  0  0
    5.5057    7.1196   21.1155 C   0  0  0  0  0  0  0  0  0  0  0  0
    7.0367   11.0229   21.9948 O   0  0  0  0  0  0  0  0  0  0  0  0
  1  8  4  0
  1 12  4  0
  2  9  1  0
  2 11  4  0
  2 25  4  0
  3 12  4  0
  3 14  1  0
  3 23  4  0
  4 13  4  0
  4 21  4  0
  4 24  1  0
  5  8  4  0
  5 23  4  0
  6 18  2  0
  7 15  4  0
  7 16  1  0
  7 27  4  0
  8 18  1  0
 10 18  1  0
 10 20  1  0
 11 15  4  0
 11 26  1  0
 13 22  4  0
 16 19  1  0
 16 20  2  0
 17 19  4  0
 17 21  4  0
 19 22  4  0
 20 28  1  0
 25 27  4  0
M  END
$$$$

 Created by Python create_sdf_string function

 28 30  0  0  0  0  0  0  0  0999 V2000
   11.4592   11.2893   18.7941 C   0  0  0  0  0  0  0  0  0  0  0  0
    3.4202    7.9009   20.3866 C   0  0  0  0  0  0  0  0  0  0  0  0
   13.5280   10.3522   19.3586 C   0  0  0  0  0  0  0  0  0  0  0  0
    9.6923    5.6468   22.7891 C   0  0  0  0  0  0  0  0  0  0  0  0
   11.7756   10.2554   20.8841 N   0  0  0  0  0  0  0  0  0  0  0  0
    8.9876   11.9370   19.8757 O   0  0  0  0  0  0  0  0  0  0  0  0
    6.0167    8.4478   21.1089 C   0  0  0  0  0  0  0  0  0  0  0  0
   11.0002   10.8890   20.0262 C   0  0  0  0  0  0  0  0  0  0  0  0
    2.1721    7.7393   20.0315 O   0  0  0  0  0  0  0  0  0  0  0  0
    9.1107   10.3880   21.3769 N   0  0  0  0  0  0  0  0  0  0  0  0
    3.9102    9.2008   20.3124 C   0  0  0  0  0  0  0  0  0  0  0  0
   12.7292   10.9960   18.4597 C   0  0  0  0  0  0  0  0  0  0  0  0
    9.3798    6.6793   23.6625 C   0  0  0  0  0  0  0  0  0  0  0  0
   14.7425   10.0739   19.0802 O   0  0  0  0  0  0  0  0  0  0  0  0
    5.1894    9.4673   20.7118 C   0  0  0  0  0  0  0  0  0  0  0  0
    7.3773    8.8224   21.4870 C   0  0  0  0  0  0  0  0  0  0  0  0
    8.4391    6.6439   21.0235 C   0  0  0  0  0  0  0  0  0  0  0  0
    9.6494   11.1353   20.4167 C   0  0  0  0  0  0  0  0  0  0  0  0
    8.1431    7.6829   21.9046 C   0  0  0  0  0  0  0  0  0  0  0  0
    7.7796   10.1314   21.5115 N   0  0  0  0  0  0  0  0  0  0  0  0
    9.2768    5.6183   21.4437 C   0  0  0  0  0  0  0  0  0  0  0  0
    8.6315    7.7322   23.1768 C   0  0  0  0  0  0  0  0  0  0  0  0
   13.0537    9.9821   20.5781 C   0  0  0  0  0  0  0  0  0  0  0  0
   10.3850    4.6575   23.2386 O   0  0  0  0  0  0  0  0  0  0  0  0
    4.2069    6.8450   20.7994 C   0  0  0  0  0  0  0  0  0  0  0  0
    3.0726   10.1043   19.8522 O   0  0  0  0  0  0  0  0  0  0  0  0
    5.5057    7.1196   21.1155 C   0  0  0  0  0  0  0  0  0  0  0  0
    7.0367   11.0229   21.9948 O   0  0  0  0  0  0  0  0  0  0  0  0
  1  8  4  0
  1 12  4  0
  2  9  1  0
  2 11  4  0
  2 25  4  0
  3 12  4  0
  3 14  1  0
  3 23  4  0
  4 13  4  0
  4 21  4  0
  4 24  1  0
  5  8  4  0
  5 23  4  0
  6 18  2  0
  7 15  4  0
  7 16  1  0
  7 27  4  0
  8 18  1  0
 10 18  1  0
 10 20  1  0
 11 15  4  0
 11 26  1  0
 13 22  4  0
 16 19  1  0
 16 20  2  0
 17 19  4  0
 17 21  4  0
 19 22  4  0
 20 28  1  0
 25 27  4  0
M  END
$$$$

 Created by Python create_sdf_string function

 28 30  0  0  0  0  0  0  0  0999 V2000
   11.4592   11.2893   18.7941 C   0  0  0  0  0  0  0  0  0  0  0  0
    3.4202    7.9009   20.3866 C   0  0  0  0  0  0  0  0  0  0  0  0
   13.5280   10.3522   19.3586 C   0  0  0  0  0  0  0  0  0  0  0  0
    9.6923    5.6468   22.7891 C   0  0  0  0  0  0  0  0  0  0  0  0
   11.7756   10.2554   20.8841 N   0  0  0  0  0  0  0  0  0  0  0  0
    8.9876   11.9370   19.8757 O   0  0  0  0  0  0  0  0  0  0  0  0
    6.0167    8.4478   21.1089 C   0  0  0  0  0  0  0  0  0  0  0  0
   11.0002   10.8890   20.0262 C   0  0  0  0  0  0  0  0  0  0  0  0
    2.1721    7.7393   20.0315 O   0  0  0  0  0  0  0  0  0  0  0  0
    9.1107   10.3880   21.3769 N   0  0  0  0  0  0  0  0  0  0  0  0
    3.9102    9.2008   20.3124 C   0  0  0  0  0  0  0  0  0  0  0  0
   12.7292   10.9960   18.4597 C   0  0  0  0  0  0  0  0  0  0  0  0
    9.3798    6.6793   23.6625 C   0  0  0  0  0  0  0  0  0  0  0  0
   14.7425   10.0739   19.0802 O   0  0  0  0  0  0  0  0  0  0  0  0
    5.1894    9.4673   20.7118 C   0  0  0  0  0  0  0  0  0  0  0  0
    7.3773    8.8224   21.4870 C   0  0  0  0  0  0  0  0  0  0  0  0
    8.4391    6.6439   21.0235 C   0  0  0  0  0  0  0  0  0  0  0  0
    9.6494   11.1353   20.4167 C   0  0  0  0  0  0  0  0  0  0  0  0
    8.1431    7.6829   21.9046 C   0  0  0  0  0  0  0  0  0  0  0  0
    7.7796   10.1314   21.5115 N   0  0  0  0  0  0  0  0  0  0  0  0
    9.2768    5.6183   21.4437 C   0  0  0  0  0  0  0  0  0  0  0  0
    8.6315    7.7322   23.1768 C   0  0  0  0  0  0  0  0  0  0  0  0
   13.0537    9.9821   20.5781 C   0  0  0  0  0  0  0  0  0  0  0  0
   10.3850    4.6575   23.2386 O   0  0  0  0  0  0  0  0  0  0  0  0
    4.2069    6.8450   20.7994 C   0  0  0  0  0  0  0  0  0  0  0  0
    3.0726   10.1043   19.8522 O   0  0  0  0  0  0  0  0  0  0  0  0
    5.5057    7.1196   21.1155 C   0  0  0  0  0  0  0  0  0  0  0  0
    7.0367   11.0229   21.9948 O   0  0  0  0  0  0  0  0  0  0  0  0
  1  8  4  0
  1 12  4  0
  2  9  1  0
  2 11  4  0
  2 25  4  0
  3 12  4  0
  3 14  1  0
  3 23  4  0
  4 13  4  0
  4 21  4  0
  4 24  1  0
  5  8  4  0
  5 23  4  0
  6 18  2  0
  7 15  4  0
  7 16  1  0
  7 27  4  0
  8 18  1  0
 10 18  1  0
 10 20  1  0
 11 15  4  0
 11 26  1  0
 13 22  4  0
 16 19  1  0
 16 20  2  0
 17 19  4  0
 17 21  4  0
 19 22  4  0
 20 28  1  0
 25 27  4  0
M  END
$$$$

 Created by Python create_sdf_string function

 28 30  0  0  0  0  0  0  0  0999 V2000
   11.4592   11.2893   18.7941 C   0  0  0  0  0  0  0  0  0  0  0  0
    3.4202    7.9009   20.3866 C   0  0  0  0  0  0  0  0  0  0  0  0
   13.5280   10.3522   19.3586 C   0  0  0  0  0  0  0  0  0  0  0  0
    9.6923    5.6468   22.7891 C   0  0  0  0  0  0  0  0  0  0  0  0
   11.7756   10.2554   20.8841 N   0  0  0  0  0  0  0  0  0  0  0  0
    8.9876   11.9370   19.8757 O   0  0  0  0  0  0  0  0  0  0  0  0
    6.0167    8.4478   21.1089 C   0  0  0  0  0  0  0  0  0  0  0  0
   11.0002   10.8890   20.0262 C   0  0  0  0  0  0  0  0  0  0  0  0
    2.1721    7.7393   20.0315 O   0  0  0  0  0  0  0  0  0  0  0  0
    9.1107   10.3880   21.3769 N   0  0  0  0  0  0  0  0  0  0  0  0
    3.9102    9.2008   20.3124 C   0  0  0  0  0  0  0  0  0  0  0  0
   12.7292   10.9960   18.4597 C   0  0  0  0  0  0  0  0  0  0  0  0
    9.3798    6.6793   23.6625 C   0  0  0  0  0  0  0  0  0  0  0  0
   14.7425   10.0739   19.0802 O   0  0  0  0  0  0  0  0  0  0  0  0
    5.1894    9.4673   20.7118 C   0  0  0  0  0  0  0  0  0  0  0  0
    7.3773    8.8224   21.4870 C   0  0  0  0  0  0  0  0  0  0  0  0
    8.4391    6.6439   21.0235 C   0  0  0  0  0  0  0  0  0  0  0  0
    9.6494   11.1353   20.4167 C   0  0  0  0  0  0  0  0  0  0  0  0
    8.1431    7.6829   21.9046 C   0  0  0  0  0  0  0  0  0  0  0  0
    7.7796   10.1314   21.5115 N   0  0  0  0  0  0  0  0  0  0  0  0
    9.2768    5.6183   21.4437 C   0  0  0  0  0  0  0  0  0  0  0  0
    8.6315    7.7322   23.1768 C   0  0  0  0  0  0  0  0  0  0  0  0
   13.0537    9.9821   20.5781 C   0  0  0  0  0  0  0  0  0  0  0  0
   10.3850    4.6575   23.2386 O   0  0  0  0  0  0  0  0  0  0  0  0
    4.2069    6.8450   20.7994 C   0  0  0  0  0  0  0  0  0  0  0  0
    3.0726   10.1043   19.8522 O   0  0  0  0  0  0  0  0  0  0  0  0
    5.5057    7.1196   21.1155 C   0  0  0  0  0  0  0  0  0  0  0  0
    7.0367   11.0229   21.9948 O   0  0  0  0  0  0  0  0  0  0  0  0
  1  8  4  0
  1 12  4  0
  2  9  1  0
  2 11  4  0
  2 25  4  0
  3 12  4  0
  3 14  1  0
  3 23  4  0
  4 13  4  0
  4 21  4  0
  4 24  1  0
  5  8  4  0
  5 23  4  0
  6 18  2  0
  7 15  4  0
  7 16  1  0
  7 27  4  0
  8 18  1  0
 10 18  1  0
 10 20  1  0
 11 15  4  0
 11 26  1  0
 13 22  4  0
 16 19  1  0
 16 20  2  0
 17 19  4  0
 17 21  4  0
 19 22  4  0
 20 28  1  0
 25 27  4  0
M  END
$$$$

 Created by Python create_sdf_string function

 28 30  0  0  0  0  0  0  0  0999 V2000
   11.4592   11.2893   18.7941 C   0  0  0  0  0  0  0  0  0  0  0  0
    3.4202    7.9009   20.3866 C   0  0  0  0  0  0  0  0  0  0  0  0
   13.5280   10.3522   19.3586 C   0  0  0  0  0  0  0  0  0  0  0  0
    9.6923    5.6468   22.7891 C   0  0  0  0  0  0  0  0  0  0  0  0
   11.7756   10.2554   20.8841 N   0  0  0  0  0  0  0  0  0  0  0  0
    8.9876   11.9370   19.8757 O   0  0  0  0  0  0  0  0  0  0  0  0
    6.0167    8.4478   21.1089 C   0  0  0  0  0  0  0  0  0  0  0  0
   11.0002   10.8890   20.0262 C   0  0  0  0  0  0  0  0  0  0  0  0
    2.1721    7.7393   20.0315 O   0  0  0  0  0  0  0  0  0  0  0  0
    9.1107   10.3880   21.3769 N   0  0  0  0  0  0  0  0  0  0  0  0
    3.9102    9.2008   20.3124 C   0  0  0  0  0  0  0  0  0  0  0  0
   12.7292   10.9960   18.4597 C   0  0  0  0  0  0  0  0  0  0  0  0
    9.3798    6.6793   23.6625 C   0  0  0  0  0  0  0  0  0  0  0  0
   14.7425   10.0739   19.0802 O   0  0  0  0  0  0  0  0  0  0  0  0
    5.1894    9.4673   20.7118 C   0  0  0  0  0  0  0  0  0  0  0  0
    7.3773    8.8224   21.4870 C   0  0  0  0  0  0  0  0  0  0  0  0
    8.4391    6.6439   21.0235 C   0  0  0  0  0  0  0  0  0  0  0  0
    9.6494   11.1353   20.4167 C   0  0  0  0  0  0  0  0  0  0  0  0
    8.1431    7.6829   21.9046 C   0  0  0  0  0  0  0  0  0  0  0  0
    7.7796   10.1314   21.5115 N   0  0  0  0  0  0  0  0  0  0  0  0
    9.2768    5.6183   21.4437 C   0  0  0  0  0  0  0  0  0  0  0  0
    8.6315    7.7322   23.1768 C   0  0  0  0  0  0  0  0  0  0  0  0
   13.0537    9.9821   20.5781 C   0  0  0  0  0  0  0  0  0  0  0  0
   10.3850    4.6575   23.2386 O   0  0  0  0  0  0  0  0  0  0  0  0
    4.2069    6.8450   20.7994 C   0  0  0  0  0  0  0  0  0  0  0  0
    3.0726   10.1043   19.8522 O   0  0  0  0  0  0  0  0  0  0  0  0
    5.5057    7.1196   21.1155 C   0  0  0  0  0  0  0  0  0  0  0  0
    7.0367   11.0229   21.9948 O   0  0  0  0  0  0  0  0  0  0  0  0
  1  8  4  0
  1 12  4  0
  2  9  1  0
  2 11  4  0
  2 25  4  0
  3 12  4  0
  3 14  1  0
  3 23  4  0
  4 13  4  0
  4 21  4  0
  4 24  1  0
  5  8  4  0
  5 23  4  0
  6 18  2  0
  7 15  4  0
  7 16  1  0
  7 27  4  0
  8 18  1  0
 10 18  1  0
 10 20  1  0
 11 15  4  0
 11 26  1  0
 13 22  4  0
 16 19  1  0
 16 20  2  0
 17 19  4  0
 17 21  4  0
 19 22  4  0
 20 28  1  0
 25 27  4  0
M  END
$$$$

 Created by Python create_sdf_string function

 28 30  0  0  0  0  0  0  0  0999 V2000
   11.4592   11.2893   18.7941 C   0  0  0  0  0  0  0  0  0  0  0  0
    3.4202    7.9009   20.3866 C   0  0  0  0  0  0  0  0  0  0  0  0
   13.5280   10.3522   19.3586 C   0  0  0  0  0  0  0  0  0  0  0  0
    9.6923    5.6468   22.7891 C   0  0  0  0  0  0  0  0  0  0  0  0
   11.7756   10.2554   20.8841 N   0  0  0  0  0  0  0  0  0  0  0  0
    8.9876   11.9370   19.8757 O   0  0  0  0  0  0  0  0  0  0  0  0
    6.0167    8.4478   21.1089 C   0  0  0  0  0  0  0  0  0  0  0  0
   11.0002   10.8890   20.0262 C   0  0  0  0  0  0  0  0  0  0  0  0
    2.1721    7.7393   20.0315 O   0  0  0  0  0  0  0  0  0  0  0  0
    9.1107   10.3880   21.3769 N   0  0  0  0  0  0  0  0  0  0  0  0
    3.9102    9.2008   20.3124 C   0  0  0  0  0  0  0  0  0  0  0  0
   12.7292   10.9960   18.4597 C   0  0  0  0  0  0  0  0  0  0  0  0
    9.3798    6.6793   23.6625 C   0  0  0  0  0  0  0  0  0  0  0  0
   14.7425   10.0739   19.0802 O   0  0  0  0  0  0  0  0  0  0  0  0
    5.1894    9.4673   20.7118 C   0  0  0  0  0  0  0  0  0  0  0  0
    7.3773    8.8224   21.4870 C   0  0  0  0  0  0  0  0  0  0  0  0
    8.4391    6.6439   21.0235 C   0  0  0  0  0  0  0  0  0  0  0  0
    9.6494   11.1353   20.4167 C   0  0  0  0  0  0  0  0  0  0  0  0
    8.1431    7.6829   21.9046 C   0  0  0  0  0  0  0  0  0  0  0  0
    7.7796   10.1314   21.5115 N   0  0  0  0  0  0  0  0  0  0  0  0
    9.2768    5.6183   21.4437 C   0  0  0  0  0  0  0  0  0  0  0  0
    8.6315    7.7322   23.1768 C   0  0  0  0  0  0  0  0  0  0  0  0
   13.0537    9.9821   20.5781 C   0  0  0  0  0  0  0  0  0  0  0  0
   10.3850    4.6575   23.2386 O   0  0  0  0  0  0  0  0  0  0  0  0
    4.2069    6.8450   20.7994 C   0  0  0  0  0  0  0  0  0  0  0  0
    3.0726   10.1043   19.8522 O   0  0  0  0  0  0  0  0  0  0  0  0
    5.5057    7.1196   21.1155 C   0  0  0  0  0  0  0  0  0  0  0  0
    7.0367   11.0229   21.9948 O   0  0  0  0  0  0  0  0  0  0  0  0
  1  8  4  0
  1 12  4  0
  2  9  1  0
  2 11  4  0
  2 25  4  0
  3 12  4  0
  3 14  1  0
  3 23  4  0
  4 13  4  0
  4 21  4  0
  4 24  1  0
  5  8  4  0
  5 23  4  0
  6 18  2  0
  7 15  4  0
  7 16  1  0
  7 27  4  0
  8 18  1  0
 10 18  1  0
 10 20  1  0
 11 15  4  0
 11 26  1  0
 13 22  4  0
 16 19  1  0
 16 20  2  0
 17 19  4  0
 17 21  4  0
 19 22  4  0
 20 28  1  0
 25 27  4  0
M  END
$$$$

 Created by Python create_sdf_string function

 28 30  0  0  0  0  0  0  0  0999 V2000
   11.4592   11.2893   18.7941 C   0  0  0  0  0  0  0  0  0  0  0  0
    3.4202    7.9009   20.3866 C   0  0  0  0  0  0  0  0  0  0  0  0
   13.5280   10.3522   19.3586 C   0  0  0  0  0  0  0  0  0  0  0  0
    9.6923    5.6468   22.7891 C   0  0  0  0  0  0  0  0  0  0  0  0
   11.7756   10.2554   20.8841 N   0  0  0  0  0  0  0  0  0  0  0  0
    8.9876   11.9370   19.8757 O   0  0  0  0  0  0  0  0  0  0  0  0
    6.0167    8.4478   21.1089 C   0  0  0  0  0  0  0  0  0  0  0  0
   11.0002   10.8890   20.0262 C   0  0  0  0  0  0  0  0  0  0  0  0
    2.1721    7.7393   20.0315 O   0  0  0  0  0  0  0  0  0  0  0  0
    9.1107   10.3880   21.3769 N   0  0  0  0  0  0  0  0  0  0  0  0
    3.9102    9.2008   20.3124 C   0  0  0  0  0  0  0  0  0  0  0  0
   12.7292   10.9960   18.4597 C   0  0  0  0  0  0  0  0  0  0  0  0
    9.3798    6.6793   23.6625 C   0  0  0  0  0  0  0  0  0  0  0  0
   14.7425   10.0739   19.0802 O   0  0  0  0  0  0  0  0  0  0  0  0
    5.1894    9.4673   20.7118 C   0  0  0  0  0  0  0  0  0  0  0  0
    7.3773    8.8224   21.4870 C   0  0  0  0  0  0  0  0  0  0  0  0
    8.4391    6.6439   21.0235 C   0  0  0  0  0  0  0  0  0  0  0  0
    9.6494   11.1353   20.4167 C   0  0  0  0  0  0  0  0  0  0  0  0
    8.1431    7.6829   21.9046 C   0  0  0  0  0  0  0  0  0  0  0  0
    7.7796   10.1314   21.5115 N   0  0  0  0  0  0  0  0  0  0  0  0
    9.2768    5.6183   21.4437 C   0  0  0  0  0  0  0  0  0  0  0  0
    8.6315    7.7322   23.1768 C   0  0  0  0  0  0  0  0  0  0  0  0
   13.0537    9.9821   20.5781 C   0  0  0  0  0  0  0  0  0  0  0  0
   10.3850    4.6575   23.2386 O   0  0  0  0  0  0  0  0  0  0  0  0
    4.2069    6.8450   20.7994 C   0  0  0  0  0  0  0  0  0  0  0  0
    3.0726   10.1043   19.8522 O   0  0  0  0  0  0  0  0  0  0  0  0
    5.5057    7.1196   21.1155 C   0  0  0  0  0  0  0  0  0  0  0  0
    7.0367   11.0229   21.9948 O   0  0  0  0  0  0  0  0  0  0  0  0
  1  8  4  0
  1 12  4  0
  2  9  1  0
  2 11  4  0
  2 25  4  0
  3 12  4  0
  3 14  1  0
  3 23  4  0
  4 13  4  0
  4 21  4  0
  4 24  1  0
  5  8  4  0
  5 23  4  0
  6 18  2  0
  7 15  4  0
  7 16  1  0
  7 27  4  0
  8 18  1  0
 10 18  1  0
 10 20  1  0
 11 15  4  0
 11 26  1  0
 13 22  4  0
 16 19  1  0
 16 20  2  0
 17 19  4  0
 17 21  4  0
 19 22  4  0
 20 28  1  0
 25 27  4  0
M  END
$$$$

 Created by Python create_sdf_string function

 28 30  0  0  0  0  0  0  0  0999 V2000
   11.4592   11.2893   18.7941 C   0  0  0  0  0  0  0  0  0  0  0  0
    3.4202    7.9009   20.3866 C   0  0  0  0  0  0  0  0  0  0  0  0
   13.5280   10.3522   19.3586 C   0  0  0  0  0  0  0  0  0  0  0  0
    9.6923    5.6468   22.7891 C   0  0  0  0  0  0  0  0  0  0  0  0
   11.7756   10.2554   20.8841 N   0  0  0  0  0  0  0  0  0  0  0  0
    8.9876   11.9370   19.8757 O   0  0  0  0  0  0  0  0  0  0  0  0
    6.0167    8.4478   21.1089 C   0  0  0  0  0  0  0  0  0  0  0  0
   11.0002   10.8890   20.0262 C   0  0  0  0  0  0  0  0  0  0  0  0
    2.1721    7.7393   20.0315 O   0  0  0  0  0  0  0  0  0  0  0  0
    9.1107   10.3880   21.3769 N   0  0  0  0  0  0  0  0  0  0  0  0
    3.9102    9.2008   20.3124 C   0  0  0  0  0  0  0  0  0  0  0  0
   12.7292   10.9960   18.4597 C   0  0  0  0  0  0  0  0  0  0  0  0
    9.3798    6.6793   23.6625 C   0  0  0  0  0  0  0  0  0  0  0  0
   14.7425   10.0739   19.0802 O   0  0  0  0  0  0  0  0  0  0  0  0
    5.1894    9.4673   20.7118 C   0  0  0  0  0  0  0  0  0  0  0  0
    7.3773    8.8224   21.4870 C   0  0  0  0  0  0  0  0  0  0  0  0
    8.4391    6.6439   21.0235 C   0  0  0  0  0  0  0  0  0  0  0  0
    9.6494   11.1353   20.4167 C   0  0  0  0  0  0  0  0  0  0  0  0
    8.1431    7.6829   21.9046 C   0  0  0  0  0  0  0  0  0  0  0  0
    7.7796   10.1314   21.5115 N   0  0  0  0  0  0  0  0  0  0  0  0
    9.2768    5.6183   21.4437 C   0  0  0  0  0  0  0  0  0  0  0  0
    8.6315    7.7322   23.1768 C   0  0  0  0  0  0  0  0  0  0  0  0
   13.0537    9.9821   20.5781 C   0  0  0  0  0  0  0  0  0  0  0  0
   10.3850    4.6575   23.2386 O   0  0  0  0  0  0  0  0  0  0  0  0
    4.2069    6.8450   20.7994 C   0  0  0  0  0  0  0  0  0  0  0  0
    3.0726   10.1043   19.8522 O   0  0  0  0  0  0  0  0  0  0  0  0
    5.5057    7.1196   21.1155 C   0  0  0  0  0  0  0  0  0  0  0  0
    7.0367   11.0229   21.9948 O   0  0  0  0  0  0  0  0  0  0  0  0
  1  8  4  0
  1 12  4  0
  2  9  1  0
  2 11  4  0
  2 25  4  0
  3 12  4  0
  3 14  1  0
  3 23  4  0
  4 13  4  0
  4 21  4  0
  4 24  1  0
  5  8  4  0
  5 23  4  0
  6 18  2  0
  7 15  4  0
  7 16  1  0
  7 27  4  0
  8 18  1  0
 10 18  1  0
 10 20  1  0
 11 15  4  0
 11 26  1  0
 13 22  4  0
 16 19  1  0
 16 20  2  0
 17 19  4  0
 17 21  4  0
 19 22  4  0
 20 28  1  0
 25 27  4  0
M  END
$$$$

 Created by Python create_sdf_string function

 28 30  0  0  0  0  0  0  0  0999 V2000
   11.4592   11.2893   18.7941 C   0  0  0  0  0  0  0  0  0  0  0  0
    3.4202    7.9009   20.3866 C   0  0  0  0  0  0  0  0  0  0  0  0
   13.5280   10.3522   19.3586 C   0  0  0  0  0  0  0  0  0  0  0  0
    9.6923    5.6468   22.7891 C   0  0  0  0  0  0  0  0  0  0  0  0
   11.7756   10.2554   20.8841 N   0  0  0  0  0  0  0  0  0  0  0  0
    8.9876   11.9370   19.8757 O   0  0  0  0  0  0  0  0  0  0  0  0
    6.0167    8.4478   21.1089 C   0  0  0  0  0  0  0  0  0  0  0  0
   11.0002   10.8890   20.0262 C   0  0  0  0  0  0  0  0  0  0  0  0
    2.1721    7.7393   20.0315 O   0  0  0  0  0  0  0  0  0  0  0  0
    9.1107   10.3880   21.3769 N   0  0  0  0  0  0  0  0  0  0  0  0
    3.9102    9.2008   20.3124 C   0  0  0  0  0  0  0  0  0  0  0  0
   12.7292   10.9960   18.4597 C   0  0  0  0  0  0  0  0  0  0  0  0
    9.3798    6.6793   23.6625 C   0  0  0  0  0  0  0  0  0  0  0  0
   14.7425   10.0739   19.0802 O   0  0  0  0  0  0  0  0  0  0  0  0
    5.1894    9.4673   20.7118 C   0  0  0  0  0  0  0  0  0  0  0  0
    7.3773    8.8224   21.4870 C   0  0  0  0  0  0  0  0  0  0  0  0
    8.4391    6.6439   21.0235 C   0  0  0  0  0  0  0  0  0  0  0  0
    9.6494   11.1353   20.4167 C   0  0  0  0  0  0  0  0  0  0  0  0
    8.1431    7.6829   21.9046 C   0  0  0  0  0  0  0  0  0  0  0  0
    7.7796   10.1314   21.5115 N   0  0  0  0  0  0  0  0  0  0  0  0
    9.2768    5.6183   21.4437 C   0  0  0  0  0  0  0  0  0  0  0  0
    8.6315    7.7322   23.1768 C   0  0  0  0  0  0  0  0  0  0  0  0
   13.0537    9.9821   20.5781 C   0  0  0  0  0  0  0  0  0  0  0  0
   10.3850    4.6575   23.2386 O   0  0  0  0  0  0  0  0  0  0  0  0
    4.2069    6.8450   20.7994 C   0  0  0  0  0  0  0  0  0  0  0  0
    3.0726   10.1043   19.8522 O   0  0  0  0  0  0  0  0  0  0  0  0
    5.5057    7.1196   21.1155 C   0  0  0  0  0  0  0  0  0  0  0  0
    7.0367   11.0229   21.9948 O   0  0  0  0  0  0  0  0  0  0  0  0
  1  8  4  0
  1 12  4  0
  2  9  1  0
  2 11  4  0
  2 25  4  0
  3 12  4  0
  3 14  1  0
  3 23  4  0
  4 13  4  0
  4 21  4  0
  4 24  1  0
  5  8  4  0
  5 23  4  0
  6 18  2  0
  7 15  4  0
  7 16  1  0
  7 27  4  0
  8 18  1  0
 10 18  1  0
 10 20  1  0
 11 15  4  0
 11 26  1  0
 13 22  4  0
 16 19  1  0
 16 20  2  0
 17 19  4  0
 17 21  4  0
 19 22  4  0
 20 28  1  0
 25 27  4  0
M  END
$$$$

 Created by Python create_sdf_string function

 28 30  0  0  0  0  0  0  0  0999 V2000
   11.4592   11.2893   18.7941 C   0  0  0  0  0  0  0  0  0  0  0  0
    3.4202    7.9009   20.3866 C   0  0  0  0  0  0  0  0  0  0  0  0
   13.5280   10.3522   19.3586 C   0  0  0  0  0  0  0  0  0  0  0  0
    9.6923    5.6468   22.7891 C   0  0  0  0  0  0  0  0  0  0  0  0
   11.7756   10.2554   20.8841 N   0  0  0  0  0  0  0  0  0  0  0  0
    8.9876   11.9370   19.8757 O   0  0  0  0  0  0  0  0  0  0  0  0
    6.0167    8.4478   21.1089 C   0  0  0  0  0  0  0  0  0  0  0  0
   11.0002   10.8890   20.0262 C   0  0  0  0  0  0  0  0  0  0  0  0
    2.1721    7.7393   20.0315 O   0  0  0  0  0  0  0  0  0  0  0  0
    9.1107   10.3880   21.3769 N   0  0  0  0  0  0  0  0  0  0  0  0
    3.9102    9.2008   20.3124 C   0  0  0  0  0  0  0  0  0  0  0  0
   12.7292   10.9960   18.4597 C   0  0  0  0  0  0  0  0  0  0  0  0
    9.3798    6.6793   23.6625 C   0  0  0  0  0  0  0  0  0  0  0  0
   14.7425   10.0739   19.0802 O   0  0  0  0  0  0  0  0  0  0  0  0
    5.1894    9.4673   20.7118 C   0  0  0  0  0  0  0  0  0  0  0  0
    7.3773    8.8224   21.4870 C   0  0  0  0  0  0  0  0  0  0  0  0
    8.4391    6.6439   21.0235 C   0  0  0  0  0  0  0  0  0  0  0  0
    9.6494   11.1353   20.4167 C   0  0  0  0  0  0  0  0  0  0  0  0
    8.1431    7.6829   21.9046 C   0  0  0  0  0  0  0  0  0  0  0  0
    7.7796   10.1314   21.5115 N   0  0  0  0  0  0  0  0  0  0  0  0
    9.2768    5.6183   21.4437 C   0  0  0  0  0  0  0  0  0  0  0  0
    8.6315    7.7322   23.1768 C   0  0  0  0  0  0  0  0  0  0  0  0
   13.0537    9.9821   20.5781 C   0  0  0  0  0  0  0  0  0  0  0  0
   10.3850    4.6575   23.2386 O   0  0  0  0  0  0  0  0  0  0  0  0
    4.2069    6.8450   20.7994 C   0  0  0  0  0  0  0  0  0  0  0  0
    3.0726   10.1043   19.8522 O   0  0  0  0  0  0  0  0  0  0  0  0
    5.5057    7.1196   21.1155 C   0  0  0  0  0  0  0  0  0  0  0  0
    7.0367   11.0229   21.9948 O   0  0  0  0  0  0  0  0  0  0  0  0
  1  8  4  0
  1 12  4  0
  2  9  1  0
  2 11  4  0
  2 25  4  0
  3 12  4  0
  3 14  1  0
  3 23  4  0
  4 13  4  0
  4 21  4  0
  4 24  1  0
  5  8  4  0
  5 23  4  0
  6 18  2  0
  7 15  4  0
  7 16  1  0
  7 27  4  0
  8 18  1  0
 10 18  1  0
 10 20  1  0
 11 15  4  0
 11 26  1  0
 13 22  4  0
 16 19  1  0
 16 20  2  0
 17 19  4  0
 17 21  4  0
 19 22  4  0
 20 28  1  0
 25 27  4  0
M  END
$$$$

 Created by Python create_sdf_string function

 28 30  0  0  0  0  0  0  0  0999 V2000
   11.4592   11.2893   18.7941 C   0  0  0  0  0  0  0  0  0  0  0  0
    3.4202    7.9009   20.3866 C   0  0  0  0  0  0  0  0  0  0  0  0
   13.5280   10.3522   19.3586 C   0  0  0  0  0  0  0  0  0  0  0  0
    9.6923    5.6468   22.7891 C   0  0  0  0  0  0  0  0  0  0  0  0
   11.7756   10.2554   20.8841 N   0  0  0  0  0  0  0  0  0  0  0  0
    8.9876   11.9370   19.8757 O   0  0  0  0  0  0  0  0  0  0  0  0
    6.0167    8.4478   21.1089 C   0  0  0  0  0  0  0  0  0  0  0  0
   11.0002   10.8890   20.0262 C   0  0  0  0  0  0  0  0  0  0  0  0
    2.1721    7.7393   20.0315 O   0  0  0  0  0  0  0  0  0  0  0  0
    9.1107   10.3880   21.3769 N   0  0  0  0  0  0  0  0  0  0  0  0
    3.9102    9.2008   20.3124 C   0  0  0  0  0  0  0  0  0  0  0  0
   12.7292   10.9960   18.4597 C   0  0  0  0  0  0  0  0  0  0  0  0
    9.3798    6.6793   23.6625 C   0  0  0  0  0  0  0  0  0  0  0  0
   14.7425   10.0739   19.0802 O   0  0  0  0  0  0  0  0  0  0  0  0
    5.1894    9.4673   20.7118 C   0  0  0  0  0  0  0  0  0  0  0  0
    7.3773    8.8224   21.4870 C   0  0  0  0  0  0  0  0  0  0  0  0
    8.4391    6.6439   21.0235 C   0  0  0  0  0  0  0  0  0  0  0  0
    9.6494   11.1353   20.4167 C   0  0  0  0  0  0  0  0  0  0  0  0
    8.1431    7.6829   21.9046 C   0  0  0  0  0  0  0  0  0  0  0  0
    7.7796   10.1314   21.5115 N   0  0  0  0  0  0  0  0  0  0  0  0
    9.2768    5.6183   21.4437 C   0  0  0  0  0  0  0  0  0  0  0  0
    8.6315    7.7322   23.1768 C   0  0  0  0  0  0  0  0  0  0  0  0
   13.0537    9.9821   20.5781 C   0  0  0  0  0  0  0  0  0  0  0  0
   10.3850    4.6575   23.2386 O   0  0  0  0  0  0  0  0  0  0  0  0
    4.2069    6.8450   20.7994 C   0  0  0  0  0  0  0  0  0  0  0  0
    3.0726   10.1043   19.8522 O   0  0  0  0  0  0  0  0  0  0  0  0
    5.5057    7.1196   21.1155 C   0  0  0  0  0  0  0  0  0  0  0  0
    7.0367   11.0229   21.9948 O   0  0  0  0  0  0  0  0  0  0  0  0
  1  8  4  0
  1 12  4  0
  2  9  1  0
  2 11  4  0
  2 25  4  0
  3 12  4  0
  3 14  1  0
  3 23  4  0
  4 13  4  0
  4 21  4  0
  4 24  1  0
  5  8  4  0
  5 23  4  0
  6 18  2  0
  7 15  4  0
  7 16  1  0
  7 27  4  0
  8 18  1  0
 10 18  1  0
 10 20  1  0
 11 15  4  0
 11 26  1  0
 13 22  4  0
 16 19  1  0
 16 20  2  0
 17 19  4  0
 17 21  4  0
 19 22  4  0
 20 28  1  0
 25 27  4  0
M  END
$$$$

 Created by Python create_sdf_string function

 28 30  0  0  0  0  0  0  0  0999 V2000
   11.4592   11.2893   18.7941 C   0  0  0  0  0  0  0  0  0  0  0  0
    3.4202    7.9009   20.3866 C   0  0  0  0  0  0  0  0  0  0  0  0
   13.5280   10.3522   19.3586 C   0  0  0  0  0  0  0  0  0  0  0  0
    9.6923    5.6468   22.7891 C   0  0  0  0  0  0  0  0  0  0  0  0
   11.7756   10.2554   20.8841 N   0  0  0  0  0  0  0  0  0  0  0  0
    8.9876   11.9370   19.8757 O   0  0  0  0  0  0  0  0  0  0  0  0
    6.0167    8.4478   21.1089 C   0  0  0  0  0  0  0  0  0  0  0  0
   11.0002   10.8890   20.0262 C   0  0  0  0  0  0  0  0  0  0  0  0
    2.1721    7.7393   20.0315 O   0  0  0  0  0  0  0  0  0  0  0  0
    9.1107   10.3880   21.3769 N   0  0  0  0  0  0  0  0  0  0  0  0
    3.9102    9.2008   20.3124 C   0  0  0  0  0  0  0  0  0  0  0  0
   12.7292   10.9960   18.4597 C   0  0  0  0  0  0  0  0  0  0  0  0
    9.3798    6.6793   23.6625 C   0  0  0  0  0  0  0  0  0  0  0  0
   14.7425   10.0739   19.0802 O   0  0  0  0  0  0  0  0  0  0  0  0
    5.1894    9.4673   20.7118 C   0  0  0  0  0  0  0  0  0  0  0  0
    7.3773    8.8224   21.4870 C   0  0  0  0  0  0  0  0  0  0  0  0
    8.4391    6.6439   21.0235 C   0  0  0  0  0  0  0  0  0  0  0  0
    9.6494   11.1353   20.4167 C   0  0  0  0  0  0  0  0  0  0  0  0
    8.1431    7.6829   21.9046 C   0  0  0  0  0  0  0  0  0  0  0  0
    7.7796   10.1314   21.5115 N   0  0  0  0  0  0  0  0  0  0  0  0
    9.2768    5.6183   21.4437 C   0  0  0  0  0  0  0  0  0  0  0  0
    8.6315    7.7322   23.1768 C   0  0  0  0  0  0  0  0  0  0  0  0
   13.0537    9.9821   20.5781 C   0  0  0  0  0  0  0  0  0  0  0  0
   10.3850    4.6575   23.2386 O   0  0  0  0  0  0  0  0  0  0  0  0
    4.2069    6.8450   20.7994 C   0  0  0  0  0  0  0  0  0  0  0  0
    3.0726   10.1043   19.8522 O   0  0  0  0  0  0  0  0  0  0  0  0
    5.5057    7.1196   21.1155 C   0  0  0  0  0  0  0  0  0  0  0  0
    7.0367   11.0229   21.9948 O   0  0  0  0  0  0  0  0  0  0  0  0
  1  8  4  0
  1 12  4  0
  2  9  1  0
  2 11  4  0
  2 25  4  0
  3 12  4  0
  3 14  1  0
  3 23  4  0
  4 13  4  0
  4 21  4  0
  4 24  1  0
  5  8  4  0
  5 23  4  0
  6 18  2  0
  7 15  4  0
  7 16  1  0
  7 27  4  0
  8 18  1  0
 10 18  1  0
 10 20  1  0
 11 15  4  0
 11 26  1  0
 13 22  4  0
 16 19  1  0
 16 20  2  0
 17 19  4  0
 17 21  4  0
 19 22  4  0
 20 28  1  0
 25 27  4  0
M  END
$$$$

 Created by Python create_sdf_string function

 28 30  0  0  0  0  0  0  0  0999 V2000
   11.4592   11.2893   18.7941 C   0  0  0  0  0  0  0  0  0  0  0  0
    3.4202    7.9009   20.3866 C   0  0  0  0  0  0  0  0  0  0  0  0
   13.5280   10.3522   19.3586 C   0  0  0  0  0  0  0  0  0  0  0  0
    9.6923    5.6468   22.7891 C   0  0  0  0  0  0  0  0  0  0  0  0
   11.7756   10.2554   20.8841 N   0  0  0  0  0  0  0  0  0  0  0  0
    8.9876   11.9370   19.8757 O   0  0  0  0  0  0  0  0  0  0  0  0
    6.0167    8.4478   21.1089 C   0  0  0  0  0  0  0  0  0  0  0  0
   11.0002   10.8890   20.0262 C   0  0  0  0  0  0  0  0  0  0  0  0
    2.1721    7.7393   20.0315 O   0  0  0  0  0  0  0  0  0  0  0  0
    9.1107   10.3880   21.3769 N   0  0  0  0  0  0  0  0  0  0  0  0
    3.9102    9.2008   20.3124 C   0  0  0  0  0  0  0  0  0  0  0  0
   12.7292   10.9960   18.4597 C   0  0  0  0  0  0  0  0  0  0  0  0
    9.3798    6.6793   23.6625 C   0  0  0  0  0  0  0  0  0  0  0  0
   14.7425   10.0739   19.0802 O   0  0  0  0  0  0  0  0  0  0  0  0
    5.1894    9.4673   20.7118 C   0  0  0  0  0  0  0  0  0  0  0  0
    7.3773    8.8224   21.4870 C   0  0  0  0  0  0  0  0  0  0  0  0
    8.4391    6.6439   21.0235 C   0  0  0  0  0  0  0  0  0  0  0  0
    9.6494   11.1353   20.4167 C   0  0  0  0  0  0  0  0  0  0  0  0
    8.1431    7.6829   21.9046 C   0  0  0  0  0  0  0  0  0  0  0  0
    7.7796   10.1314   21.5115 N   0  0  0  0  0  0  0  0  0  0  0  0
    9.2768    5.6183   21.4437 C   0  0  0  0  0  0  0  0  0  0  0  0
    8.6315    7.7322   23.1768 C   0  0  0  0  0  0  0  0  0  0  0  0
   13.0537    9.9821   20.5781 C   0  0  0  0  0  0  0  0  0  0  0  0
   10.3850    4.6575   23.2386 O   0  0  0  0  0  0  0  0  0  0  0  0
    4.2069    6.8450   20.7994 C   0  0  0  0  0  0  0  0  0  0  0  0
    3.0726   10.1043   19.8522 O   0  0  0  0  0  0  0  0  0  0  0  0
    5.5057    7.1196   21.1155 C   0  0  0  0  0  0  0  0  0  0  0  0
    7.0367   11.0229   21.9948 O   0  0  0  0  0  0  0  0  0  0  0  0
  1  8  4  0
  1 12  4  0
  2  9  1  0
  2 11  4  0
  2 25  4  0
  3 12  4  0
  3 14  1  0
  3 23  4  0
  4 13  4  0
  4 21  4  0
  4 24  1  0
  5  8  4  0
  5 23  4  0
  6 18  2  0
  7 15  4  0
  7 16  1  0
  7 27  4  0
  8 18  1  0
 10 18  1  0
 10 20  1  0
 11 15  4  0
 11 26  1  0
 13 22  4  0
 16 19  1  0
 16 20  2  0
 17 19  4  0
 17 21  4  0
 19 22  4  0
 20 28  1  0
 25 27  4  0
M  END
$$$$

 Created by Python create_sdf_string function

 28 30  0  0  0  0  0  0  0  0999 V2000
   11.4592   11.2893   18.7941 C   0  0  0  0  0  0  0  0  0  0  0  0
    3.4202    7.9009   20.3866 C   0  0  0  0  0  0  0  0  0  0  0  0
   13.5280   10.3522   19.3586 C   0  0  0  0  0  0  0  0  0  0  0  0
    9.6923    5.6468   22.7891 C   0  0  0  0  0  0  0  0  0  0  0  0
   11.7756   10.2554   20.8841 N   0  0  0  0  0  0  0  0  0  0  0  0
    8.9876   11.9370   19.8757 O   0  0  0  0  0  0  0  0  0  0  0  0
    6.0167    8.4478   21.1089 C   0  0  0  0  0  0  0  0  0  0  0  0
   11.0002   10.8890   20.0262 C   0  0  0  0  0  0  0  0  0  0  0  0
    2.1721    7.7393   20.0315 O   0  0  0  0  0  0  0  0  0  0  0  0
    9.1107   10.3880   21.3769 N   0  0  0  0  0  0  0  0  0  0  0  0
    3.9102    9.2008   20.3124 C   0  0  0  0  0  0  0  0  0  0  0  0
   12.7292   10.9960   18.4597 C   0  0  0  0  0  0  0  0  0  0  0  0
    9.3798    6.6793   23.6625 C   0  0  0  0  0  0  0  0  0  0  0  0
   14.7425   10.0739   19.0802 O   0  0  0  0  0  0  0  0  0  0  0  0
    5.1894    9.4673   20.7118 C   0  0  0  0  0  0  0  0  0  0  0  0
    7.3773    8.8224   21.4870 C   0  0  0  0  0  0  0  0  0  0  0  0
    8.4391    6.6439   21.0235 C   0  0  0  0  0  0  0  0  0  0  0  0
    9.6494   11.1353   20.4167 C   0  0  0  0  0  0  0  0  0  0  0  0
    8.1431    7.6829   21.9046 C   0  0  0  0  0  0  0  0  0  0  0  0
    7.7796   10.1314   21.5115 N   0  0  0  0  0  0  0  0  0  0  0  0
    9.2768    5.6183   21.4437 C   0  0  0  0  0  0  0  0  0  0  0  0
    8.6315    7.7322   23.1768 C   0  0  0  0  0  0  0  0  0  0  0  0
   13.0537    9.9821   20.5781 C   0  0  0  0  0  0  0  0  0  0  0  0
   10.3850    4.6575   23.2386 O   0  0  0  0  0  0  0  0  0  0  0  0
    4.2069    6.8450   20.7994 C   0  0  0  0  0  0  0  0  0  0  0  0
    3.0726   10.1043   19.8522 O   0  0  0  0  0  0  0  0  0  0  0  0
    5.5057    7.1196   21.1155 C   0  0  0  0  0  0  0  0  0  0  0  0
    7.0367   11.0229   21.9948 O   0  0  0  0  0  0  0  0  0  0  0  0
  1  8  4  0
  1 12  4  0
  2  9  1  0
  2 11  4  0
  2 25  4  0
  3 12  4  0
  3 14  1  0
  3 23  4  0
  4 13  4  0
  4 21  4  0
  4 24  1  0
  5  8  4  0
  5 23  4  0
  6 18  2  0
  7 15  4  0
  7 16  1  0
  7 27  4  0
  8 18  1  0
 10 18  1  0
 10 20  1  0
 11 15  4  0
 11 26  1  0
 13 22  4  0
 16 19  1  0
 16 20  2  0
 17 19  4  0
 17 21  4  0
 19 22  4  0
 20 28  1  0
 25 27  4  0
M  END
$$$$

 Created by Python create_sdf_string function

 28 30  0  0  0  0  0  0  0  0999 V2000
   11.4592   11.2893   18.7941 C   0  0  0  0  0  0  0  0  0  0  0  0
    3.4202    7.9009   20.3866 C   0  0  0  0  0  0  0  0  0  0  0  0
   13.5280   10.3522   19.3586 C   0  0  0  0  0  0  0  0  0  0  0  0
    9.6923    5.6468   22.7891 C   0  0  0  0  0  0  0  0  0  0  0  0
   11.7756   10.2554   20.8841 N   0  0  0  0  0  0  0  0  0  0  0  0
    8.9876   11.9370   19.8757 O   0  0  0  0  0  0  0  0  0  0  0  0
    6.0167    8.4478   21.1089 C   0  0  0  0  0  0  0  0  0  0  0  0
   11.0002   10.8890   20.0262 C   0  0  0  0  0  0  0  0  0  0  0  0
    2.1721    7.7393   20.0315 O   0  0  0  0  0  0  0  0  0  0  0  0
    9.1107   10.3880   21.3769 N   0  0  0  0  0  0  0  0  0  0  0  0
    3.9102    9.2008   20.3124 C   0  0  0  0  0  0  0  0  0  0  0  0
   12.7292   10.9960   18.4597 C   0  0  0  0  0  0  0  0  0  0  0  0
    9.3798    6.6793   23.6625 C   0  0  0  0  0  0  0  0  0  0  0  0
   14.7425   10.0739   19.0802 O   0  0  0  0  0  0  0  0  0  0  0  0
    5.1894    9.4673   20.7118 C   0  0  0  0  0  0  0  0  0  0  0  0
    7.3773    8.8224   21.4870 C   0  0  0  0  0  0  0  0  0  0  0  0
    8.4391    6.6439   21.0235 C   0  0  0  0  0  0  0  0  0  0  0  0
    9.6494   11.1353   20.4167 C   0  0  0  0  0  0  0  0  0  0  0  0
    8.1431    7.6829   21.9046 C   0  0  0  0  0  0  0  0  0  0  0  0
    7.7796   10.1314   21.5115 N   0  0  0  0  0  0  0  0  0  0  0  0
    9.2768    5.6183   21.4437 C   0  0  0  0  0  0  0  0  0  0  0  0
    8.6315    7.7322   23.1768 C   0  0  0  0  0  0  0  0  0  0  0  0
   13.0537    9.9821   20.5781 C   0  0  0  0  0  0  0  0  0  0  0  0
   10.3850    4.6575   23.2386 O   0  0  0  0  0  0  0  0  0  0  0  0
    4.2069    6.8450   20.7994 C   0  0  0  0  0  0  0  0  0  0  0  0
    3.0726   10.1043   19.8522 O   0  0  0  0  0  0  0  0  0  0  0  0
    5.5057    7.1196   21.1155 C   0  0  0  0  0  0  0  0  0  0  0  0
    7.0367   11.0229   21.9948 O   0  0  0  0  0  0  0  0  0  0  0  0
  1  8  4  0
  1 12  4  0
  2  9  1  0
  2 11  4  0
  2 25  4  0
  3 12  4  0
  3 14  1  0
  3 23  4  0
  4 13  4  0
  4 21  4  0
  4 24  1  0
  5  8  4  0
  5 23  4  0
  6 18  2  0
  7 15  4  0
  7 16  1  0
  7 27  4  0
  8 18  1  0
 10 18  1  0
 10 20  1  0
 11 15  4  0
 11 26  1  0
 13 22  4  0
 16 19  1  0
 16 20  2  0
 17 19  4  0
 17 21  4  0
 19 22  4  0
 20 28  1  0
 25 27  4  0
M  END
$$$$

 Created by Python create_sdf_string function

 28 30  0  0  0  0  0  0  0  0999 V2000
   11.4592   11.2893   18.7941 C   0  0  0  0  0  0  0  0  0  0  0  0
    3.4202    7.9009   20.3866 C   0  0  0  0  0  0  0  0  0  0  0  0
   13.5280   10.3522   19.3586 C   0  0  0  0  0  0  0  0  0  0  0  0
    9.6923    5.6468   22.7891 C   0  0  0  0  0  0  0  0  0  0  0  0
   11.7756   10.2554   20.8841 N   0  0  0  0  0  0  0  0  0  0  0  0
    8.9876   11.9370   19.8757 O   0  0  0  0  0  0  0  0  0  0  0  0
    6.0167    8.4478   21.1089 C   0  0  0  0  0  0  0  0  0  0  0  0
   11.0002   10.8890   20.0262 C   0  0  0  0  0  0  0  0  0  0  0  0
    2.1721    7.7393   20.0315 O   0  0  0  0  0  0  0  0  0  0  0  0
    9.1107   10.3880   21.3769 N   0  0  0  0  0  0  0  0  0  0  0  0
    3.9102    9.2008   20.3124 C   0  0  0  0  0  0  0  0  0  0  0  0
   12.7292   10.9960   18.4597 C   0  0  0  0  0  0  0  0  0  0  0  0
    9.3798    6.6793   23.6625 C   0  0  0  0  0  0  0  0  0  0  0  0
   14.7425   10.0739   19.0802 O   0  0  0  0  0  0  0  0  0  0  0  0
    5.1894    9.4673   20.7118 C   0  0  0  0  0  0  0  0  0  0  0  0
    7.3773    8.8224   21.4870 C   0  0  0  0  0  0  0  0  0  0  0  0
    8.4391    6.6439   21.0235 C   0  0  0  0  0  0  0  0  0  0  0  0
    9.6494   11.1353   20.4167 C   0  0  0  0  0  0  0  0  0  0  0  0
    8.1431    7.6829   21.9046 C   0  0  0  0  0  0  0  0  0  0  0  0
    7.7796   10.1314   21.5115 N   0  0  0  0  0  0  0  0  0  0  0  0
    9.2768    5.6183   21.4437 C   0  0  0  0  0  0  0  0  0  0  0  0
    8.6315    7.7322   23.1768 C   0  0  0  0  0  0  0  0  0  0  0  0
   13.0537    9.9821   20.5781 C   0  0  0  0  0  0  0  0  0  0  0  0
   10.3850    4.6575   23.2386 O   0  0  0  0  0  0  0  0  0  0  0  0
    4.2069    6.8450   20.7994 C   0  0  0  0  0  0  0  0  0  0  0  0
    3.0726   10.1043   19.8522 O   0  0  0  0  0  0  0  0  0  0  0  0
    5.5057    7.1196   21.1155 C   0  0  0  0  0  0  0  0  0  0  0  0
    7.0367   11.0229   21.9948 O   0  0  0  0  0  0  0  0  0  0  0  0
  1  8  4  0
  1 12  4  0
  2  9  1  0
  2 11  4  0
  2 25  4  0
  3 12  4  0
  3 14  1  0
  3 23  4  0
  4 13  4  0
  4 21  4  0
  4 24  1  0
  5  8  4  0
  5 23  4  0
  6 18  2  0
  7 15  4  0
  7 16  1  0
  7 27  4  0
  8 18  1  0
 10 18  1  0
 10 20  1  0
 11 15  4  0
 11 26  1  0
 13 22  4  0
 16 19  1  0
 16 20  2  0
 17 19  4  0
 17 21  4  0
 19 22  4  0
 20 28  1  0
 25 27  4  0
M  END
$$$$

 Created by Python create_sdf_string function

 28 30  0  0  0  0  0  0  0  0999 V2000
   11.4592   11.2893   18.7941 C   0  0  0  0  0  0  0  0  0  0  0  0
    3.4202    7.9009   20.3866 C   0  0  0  0  0  0  0  0  0  0  0  0
   13.5280   10.3522   19.3586 C   0  0  0  0  0  0  0  0  0  0  0  0
    9.6923    5.6468   22.7891 C   0  0  0  0  0  0  0  0  0  0  0  0
   11.7756   10.2554   20.8841 N   0  0  0  0  0  0  0  0  0  0  0  0
    8.9876   11.9370   19.8757 O   0  0  0  0  0  0  0  0  0  0  0  0
    6.0167    8.4478   21.1089 C   0  0  0  0  0  0  0  0  0  0  0  0
   11.0002   10.8890   20.0262 C   0  0  0  0  0  0  0  0  0  0  0  0
    2.1721    7.7393   20.0315 O   0  0  0  0  0  0  0  0  0  0  0  0
    9.1107   10.3880   21.3769 N   0  0  0  0  0  0  0  0  0  0  0  0
    3.9102    9.2008   20.3124 C   0  0  0  0  0  0  0  0  0  0  0  0
   12.7292   10.9960   18.4597 C   0  0  0  0  0  0  0  0  0  0  0  0
    9.3798    6.6793   23.6625 C   0  0  0  0  0  0  0  0  0  0  0  0
   14.7425   10.0739   19.0802 O   0  0  0  0  0  0  0  0  0  0  0  0
    5.1894    9.4673   20.7118 C   0  0  0  0  0  0  0  0  0  0  0  0
    7.3773    8.8224   21.4870 C   0  0  0  0  0  0  0  0  0  0  0  0
    8.4391    6.6439   21.0235 C   0  0  0  0  0  0  0  0  0  0  0  0
    9.6494   11.1353   20.4167 C   0  0  0  0  0  0  0  0  0  0  0  0
    8.1431    7.6829   21.9046 C   0  0  0  0  0  0  0  0  0  0  0  0
    7.7796   10.1314   21.5115 N   0  0  0  0  0  0  0  0  0  0  0  0
    9.2768    5.6183   21.4437 C   0  0  0  0  0  0  0  0  0  0  0  0
    8.6315    7.7322   23.1768 C   0  0  0  0  0  0  0  0  0  0  0  0
   13.0537    9.9821   20.5781 C   0  0  0  0  0  0  0  0  0  0  0  0
   10.3850    4.6575   23.2386 O   0  0  0  0  0  0  0  0  0  0  0  0
    4.2069    6.8450   20.7994 C   0  0  0  0  0  0  0  0  0  0  0  0
    3.0726   10.1043   19.8522 O   0  0  0  0  0  0  0  0  0  0  0  0
    5.5057    7.1196   21.1155 C   0  0  0  0  0  0  0  0  0  0  0  0
    7.0367   11.0229   21.9948 O   0  0  0  0  0  0  0  0  0  0  0  0
  1  8  4  0
  1 12  4  0
  2  9  1  0
  2 11  4  0
  2 25  4  0
  3 12  4  0
  3 14  1  0
  3 23  4  0
  4 13  4  0
  4 21  4  0
  4 24  1  0
  5  8  4  0
  5 23  4  0
  6 18  2  0
  7 15  4  0
  7 16  1  0
  7 27  4  0
  8 18  1  0
 10 18  1  0
 10 20  1  0
 11 15  4  0
 11 26  1  0
 13 22  4  0
 16 19  1  0
 16 20  2  0
 17 19  4  0
 17 21  4  0
 19 22  4  0
 20 28  1  0
 25 27  4  0
M  END
$$$$

 Created by Python create_sdf_string function

 28 30  0  0  0  0  0  0  0  0999 V2000
   11.4592   11.2893   18.7941 C   0  0  0  0  0  0  0  0  0  0  0  0
    3.4202    7.9009   20.3866 C   0  0  0  0  0  0  0  0  0  0  0  0
   13.5280   10.3522   19.3586 C   0  0  0  0  0  0  0  0  0  0  0  0
    9.6923    5.6468   22.7891 C   0  0  0  0  0  0  0  0  0  0  0  0
   11.7756   10.2554   20.8841 N   0  0  0  0  0  0  0  0  0  0  0  0
    8.9876   11.9370   19.8757 O   0  0  0  0  0  0  0  0  0  0  0  0
    6.0167    8.4478   21.1089 C   0  0  0  0  0  0  0  0  0  0  0  0
   11.0002   10.8890   20.0262 C   0  0  0  0  0  0  0  0  0  0  0  0
    2.1721    7.7393   20.0315 O   0  0  0  0  0  0  0  0  0  0  0  0
    9.1107   10.3880   21.3769 N   0  0  0  0  0  0  0  0  0  0  0  0
    3.9102    9.2008   20.3124 C   0  0  0  0  0  0  0  0  0  0  0  0
   12.7292   10.9960   18.4597 C   0  0  0  0  0  0  0  0  0  0  0  0
    9.3798    6.6793   23.6625 C   0  0  0  0  0  0  0  0  0  0  0  0
   14.7425   10.0739   19.0802 O   0  0  0  0  0  0  0  0  0  0  0  0
    5.1894    9.4673   20.7118 C   0  0  0  0  0  0  0  0  0  0  0  0
    7.3773    8.8224   21.4870 C   0  0  0  0  0  0  0  0  0  0  0  0
    8.4391    6.6439   21.0235 C   0  0  0  0  0  0  0  0  0  0  0  0
    9.6494   11.1353   20.4167 C   0  0  0  0  0  0  0  0  0  0  0  0
    8.1431    7.6829   21.9046 C   0  0  0  0  0  0  0  0  0  0  0  0
    7.7796   10.1314   21.5115 N   0  0  0  0  0  0  0  0  0  0  0  0
    9.2768    5.6183   21.4437 C   0  0  0  0  0  0  0  0  0  0  0  0
    8.6315    7.7322   23.1768 C   0  0  0  0  0  0  0  0  0  0  0  0
   13.0537    9.9821   20.5781 C   0  0  0  0  0  0  0  0  0  0  0  0
   10.3850    4.6575   23.2386 O   0  0  0  0  0  0  0  0  0  0  0  0
    4.2069    6.8450   20.7994 C   0  0  0  0  0  0  0  0  0  0  0  0
    3.0726   10.1043   19.8522 O   0  0  0  0  0  0  0  0  0  0  0  0
    5.5057    7.1196   21.1155 C   0  0  0  0  0  0  0  0  0  0  0  0
    7.0367   11.0229   21.9948 O   0  0  0  0  0  0  0  0  0  0  0  0
  1  8  4  0
  1 12  4  0
  2  9  1  0
  2 11  4  0
  2 25  4  0
  3 12  4  0
  3 14  1  0
  3 23  4  0
  4 13  4  0
  4 21  4  0
  4 24  1  0
  5  8  4  0
  5 23  4  0
  6 18  2  0
  7 15  4  0
  7 16  1  0
  7 27  4  0
  8 18  1  0
 10 18  1  0
 10 20  1  0
 11 15  4  0
 11 26  1  0
 13 22  4  0
 16 19  1  0
 16 20  2  0
 17 19  4  0
 17 21  4  0
 19 22  4  0
 20 28  1  0
 25 27  4  0
M  END
$$$$

 Created by Python create_sdf_string function

 28 30  0  0  0  0  0  0  0  0999 V2000
   11.4592   11.2893   18.7941 C   0  0  0  0  0  0  0  0  0  0  0  0
    3.4202    7.9009   20.3866 C   0  0  0  0  0  0  0  0  0  0  0  0
   13.5280   10.3522   19.3586 C   0  0  0  0  0  0  0  0  0  0  0  0
    9.6923    5.6468   22.7891 C   0  0  0  0  0  0  0  0  0  0  0  0
   11.7756   10.2554   20.8841 N   0  0  0  0  0  0  0  0  0  0  0  0
    8.9876   11.9370   19.8757 O   0  0  0  0  0  0  0  0  0  0  0  0
    6.0167    8.4478   21.1089 C   0  0  0  0  0  0  0  0  0  0  0  0
   11.0002   10.8890   20.0262 C   0  0  0  0  0  0  0  0  0  0  0  0
    2.1721    7.7393   20.0315 O   0  0  0  0  0  0  0  0  0  0  0  0
    9.1107   10.3880   21.3769 N   0  0  0  0  0  0  0  0  0  0  0  0
    3.9102    9.2008   20.3124 C   0  0  0  0  0  0  0  0  0  0  0  0
   12.7292   10.9960   18.4597 C   0  0  0  0  0  0  0  0  0  0  0  0
    9.3798    6.6793   23.6625 C   0  0  0  0  0  0  0  0  0  0  0  0
   14.7425   10.0739   19.0802 O   0  0  0  0  0  0  0  0  0  0  0  0
    5.1894    9.4673   20.7118 C   0  0  0  0  0  0  0  0  0  0  0  0
    7.3773    8.8224   21.4870 C   0  0  0  0  0  0  0  0  0  0  0  0
    8.4391    6.6439   21.0235 C   0  0  0  0  0  0  0  0  0  0  0  0
    9.6494   11.1353   20.4167 C   0  0  0  0  0  0  0  0  0  0  0  0
    8.1431    7.6829   21.9046 C   0  0  0  0  0  0  0  0  0  0  0  0
    7.7796   10.1314   21.5115 N   0  0  0  0  0  0  0  0  0  0  0  0
    9.2768    5.6183   21.4437 C   0  0  0  0  0  0  0  0  0  0  0  0
    8.6315    7.7322   23.1768 C   0  0  0  0  0  0  0  0  0  0  0  0
   13.0537    9.9821   20.5781 C   0  0  0  0  0  0  0  0  0  0  0  0
   10.3850    4.6575   23.2386 O   0  0  0  0  0  0  0  0  0  0  0  0
    4.2069    6.8450   20.7994 C   0  0  0  0  0  0  0  0  0  0  0  0
    3.0726   10.1043   19.8522 O   0  0  0  0  0  0  0  0  0  0  0  0
    5.5057    7.1196   21.1155 C   0  0  0  0  0  0  0  0  0  0  0  0
    7.0367   11.0229   21.9948 O   0  0  0  0  0  0  0  0  0  0  0  0
  1  8  4  0
  1 12  4  0
  2  9  1  0
  2 11  4  0
  2 25  4  0
  3 12  4  0
  3 14  1  0
  3 23  4  0
  4 13  4  0
  4 21  4  0
  4 24  1  0
  5  8  4  0
  5 23  4  0
  6 18  2  0
  7 15  4  0
  7 16  1  0
  7 27  4  0
  8 18  1  0
 10 18  1  0
 10 20  1  0
 11 15  4  0
 11 26  1  0
 13 22  4  0
 16 19  1  0
 16 20  2  0
 17 19  4  0
 17 21  4  0
 19 22  4  0
 20 28  1  0
 25 27  4  0
M  END
$$$$

 Created by Python create_sdf_string function

 28 30  0  0  0  0  0  0  0  0999 V2000
   11.4592   11.2893   18.7941 C   0  0  0  0  0  0  0  0  0  0  0  0
    3.4202    7.9009   20.3866 C   0  0  0  0  0  0  0  0  0  0  0  0
   13.5280   10.3522   19.3586 C   0  0  0  0  0  0  0  0  0  0  0  0
    9.6923    5.6468   22.7891 C   0  0  0  0  0  0  0  0  0  0  0  0
   11.7756   10.2554   20.8841 N   0  0  0  0  0  0  0  0  0  0  0  0
    8.9876   11.9370   19.8757 O   0  0  0  0  0  0  0  0  0  0  0  0
    6.0167    8.4478   21.1089 C   0  0  0  0  0  0  0  0  0  0  0  0
   11.0002   10.8890   20.0262 C   0  0  0  0  0  0  0  0  0  0  0  0
    2.1721    7.7393   20.0315 O   0  0  0  0  0  0  0  0  0  0  0  0
    9.1107   10.3880   21.3769 N   0  0  0  0  0  0  0  0  0  0  0  0
    3.9102    9.2008   20.3124 C   0  0  0  0  0  0  0  0  0  0  0  0
   12.7292   10.9960   18.4597 C   0  0  0  0  0  0  0  0  0  0  0  0
    9.3798    6.6793   23.6625 C   0  0  0  0  0  0  0  0  0  0  0  0
   14.7425   10.0739   19.0802 O   0  0  0  0  0  0  0  0  0  0  0  0
    5.1894    9.4673   20.7118 C   0  0  0  0  0  0  0  0  0  0  0  0
    7.3773    8.8224   21.4870 C   0  0  0  0  0  0  0  0  0  0  0  0
    8.4391    6.6439   21.0235 C   0  0  0  0  0  0  0  0  0  0  0  0
    9.6494   11.1353   20.4167 C   0  0  0  0  0  0  0  0  0  0  0  0
    8.1431    7.6829   21.9046 C   0  0  0  0  0  0  0  0  0  0  0  0
    7.7796   10.1314   21.5115 N   0  0  0  0  0  0  0  0  0  0  0  0
    9.2768    5.6183   21.4437 C   0  0  0  0  0  0  0  0  0  0  0  0
    8.6315    7.7322   23.1768 C   0  0  0  0  0  0  0  0  0  0  0  0
   13.0537    9.9821   20.5781 C   0  0  0  0  0  0  0  0  0  0  0  0
   10.3850    4.6575   23.2386 O   0  0  0  0  0  0  0  0  0  0  0  0
    4.2069    6.8450   20.7994 C   0  0  0  0  0  0  0  0  0  0  0  0
    3.0726   10.1043   19.8522 O   0  0  0  0  0  0  0  0  0  0  0  0
    5.5057    7.1196   21.1155 C   0  0  0  0  0  0  0  0  0  0  0  0
    7.0367   11.0229   21.9948 O   0  0  0  0  0  0  0  0  0  0  0  0
  1  8  4  0
  1 12  4  0
  2  9  1  0
  2 11  4  0
  2 25  4  0
  3 12  4  0
  3 14  1  0
  3 23  4  0
  4 13  4  0
  4 21  4  0
  4 24  1  0
  5  8  4  0
  5 23  4  0
  6 18  2  0
  7 15  4  0
  7 16  1  0
  7 27  4  0
  8 18  1  0
 10 18  1  0
 10 20  1  0
 11 15  4  0
 11 26  1  0
 13 22  4  0
 16 19  1  0
 16 20  2  0
 17 19  4  0
 17 21  4  0
 19 22  4  0
 20 28  1  0
 25 27  4  0
M  END
$$$$

 Created by Python create_sdf_string function

 28 30  0  0  0  0  0  0  0  0999 V2000
   11.4592   11.2893   18.7941 C   0  0  0  0  0  0  0  0  0  0  0  0
    3.4202    7.9009   20.3866 C   0  0  0  0  0  0  0  0  0  0  0  0
   13.5280   10.3522   19.3586 C   0  0  0  0  0  0  0  0  0  0  0  0
    9.6923    5.6468   22.7891 C   0  0  0  0  0  0  0  0  0  0  0  0
   11.7756   10.2554   20.8841 N   0  0  0  0  0  0  0  0  0  0  0  0
    8.9876   11.9370   19.8757 O   0  0  0  0  0  0  0  0  0  0  0  0
    6.0167    8.4478   21.1089 C   0  0  0  0  0  0  0  0  0  0  0  0
   11.0002   10.8890   20.0262 C   0  0  0  0  0  0  0  0  0  0  0  0
    2.1721    7.7393   20.0315 O   0  0  0  0  0  0  0  0  0  0  0  0
    9.1107   10.3880   21.3769 N   0  0  0  0  0  0  0  0  0  0  0  0
    3.9102    9.2008   20.3124 C   0  0  0  0  0  0  0  0  0  0  0  0
   12.7292   10.9960   18.4597 C   0  0  0  0  0  0  0  0  0  0  0  0
    9.3798    6.6793   23.6625 C   0  0  0  0  0  0  0  0  0  0  0  0
   14.7425   10.0739   19.0802 O   0  0  0  0  0  0  0  0  0  0  0  0
    5.1894    9.4673   20.7118 C   0  0  0  0  0  0  0  0  0  0  0  0
    7.3773    8.8224   21.4870 C   0  0  0  0  0  0  0  0  0  0  0  0
    8.4391    6.6439   21.0235 C   0  0  0  0  0  0  0  0  0  0  0  0
    9.6494   11.1353   20.4167 C   0  0  0  0  0  0  0  0  0  0  0  0
    8.1431    7.6829   21.9046 C   0  0  0  0  0  0  0  0  0  0  0  0
    7.7796   10.1314   21.5115 N   0  0  0  0  0  0  0  0  0  0  0  0
    9.2768    5.6183   21.4437 C   0  0  0  0  0  0  0  0  0  0  0  0
    8.6315    7.7322   23.1768 C   0  0  0  0  0  0  0  0  0  0  0  0
   13.0537    9.9821   20.5781 C   0  0  0  0  0  0  0  0  0  0  0  0
   10.3850    4.6575   23.2386 O   0  0  0  0  0  0  0  0  0  0  0  0
    4.2069    6.8450   20.7994 C   0  0  0  0  0  0  0  0  0  0  0  0
    3.0726   10.1043   19.8522 O   0  0  0  0  0  0  0  0  0  0  0  0
    5.5057    7.1196   21.1155 C   0  0  0  0  0  0  0  0  0  0  0  0
    7.0367   11.0229   21.9948 O   0  0  0  0  0  0  0  0  0  0  0  0
  1  8  4  0
  1 12  4  0
  2  9  1  0
  2 11  4  0
  2 25  4  0
  3 12  4  0
  3 14  1  0
  3 23  4  0
  4 13  4  0
  4 21  4  0
  4 24  1  0
  5  8  4  0
  5 23  4  0
  6 18  2  0
  7 15  4  0
  7 16  1  0
  7 27  4  0
  8 18  1  0
 10 18  1  0
 10 20  1  0
 11 15  4  0
 11 26  1  0
 13 22  4  0
 16 19  1  0
 16 20  2  0
 17 19  4  0
 17 21  4  0
 19 22  4  0
 20 28  1  0
 25 27  4  0
M  END
$$$$

 Created by Python create_sdf_string function

 28 30  0  0  0  0  0  0  0  0999 V2000
   11.4592   11.2893   18.7941 C   0  0  0  0  0  0  0  0  0  0  0  0
    3.4202    7.9009   20.3866 C   0  0  0  0  0  0  0  0  0  0  0  0
   13.5280   10.3522   19.3586 C   0  0  0  0  0  0  0  0  0  0  0  0
    9.6923    5.6468   22.7891 C   0  0  0  0  0  0  0  0  0  0  0  0
   11.7756   10.2554   20.8841 N   0  0  0  0  0  0  0  0  0  0  0  0
    8.9876   11.9370   19.8757 O   0  0  0  0  0  0  0  0  0  0  0  0
    6.0167    8.4478   21.1089 C   0  0  0  0  0  0  0  0  0  0  0  0
   11.0002   10.8890   20.0262 C   0  0  0  0  0  0  0  0  0  0  0  0
    2.1721    7.7393   20.0315 O   0  0  0  0  0  0  0  0  0  0  0  0
    9.1107   10.3880   21.3769 N   0  0  0  0  0  0  0  0  0  0  0  0
    3.9102    9.2008   20.3124 C   0  0  0  0  0  0  0  0  0  0  0  0
   12.7292   10.9960   18.4597 C   0  0  0  0  0  0  0  0  0  0  0  0
    9.3798    6.6793   23.6625 C   0  0  0  0  0  0  0  0  0  0  0  0
   14.7425   10.0739   19.0802 O   0  0  0  0  0  0  0  0  0  0  0  0
    5.1894    9.4673   20.7118 C   0  0  0  0  0  0  0  0  0  0  0  0
    7.3773    8.8224   21.4870 C   0  0  0  0  0  0  0  0  0  0  0  0
    8.4391    6.6439   21.0235 C   0  0  0  0  0  0  0  0  0  0  0  0
    9.6494   11.1353   20.4167 C   0  0  0  0  0  0  0  0  0  0  0  0
    8.1431    7.6829   21.9046 C   0  0  0  0  0  0  0  0  0  0  0  0
    7.7796   10.1314   21.5115 N   0  0  0  0  0  0  0  0  0  0  0  0
    9.2768    5.6183   21.4437 C   0  0  0  0  0  0  0  0  0  0  0  0
    8.6315    7.7322   23.1768 C   0  0  0  0  0  0  0  0  0  0  0  0
   13.0537    9.9821   20.5781 C   0  0  0  0  0  0  0  0  0  0  0  0
   10.3850    4.6575   23.2386 O   0  0  0  0  0  0  0  0  0  0  0  0
    4.2069    6.8450   20.7994 C   0  0  0  0  0  0  0  0  0  0  0  0
    3.0726   10.1043   19.8522 O   0  0  0  0  0  0  0  0  0  0  0  0
    5.5057    7.1196   21.1155 C   0  0  0  0  0  0  0  0  0  0  0  0
    7.0367   11.0229   21.9948 O   0  0  0  0  0  0  0  0  0  0  0  0
  1  8  4  0
  1 12  4  0
  2  9  1  0
  2 11  4  0
  2 25  4  0
  3 12  4  0
  3 14  1  0
  3 23  4  0
  4 13  4  0
  4 21  4  0
  4 24  1  0
  5  8  4  0
  5 23  4  0
  6 18  2  0
  7 15  4  0
  7 16  1  0
  7 27  4  0
  8 18  1  0
 10 18  1  0
 10 20  1  0
 11 15  4  0
 11 26  1  0
 13 22  4  0
 16 19  1  0
 16 20  2  0
 17 19  4  0
 17 21  4  0
 19 22  4  0
 20 28  1  0
 25 27  4  0
M  END
$$$$

 Created by Python create_sdf_string function

 28 30  0  0  0  0  0  0  0  0999 V2000
   11.4592   11.2893   18.7941 C   0  0  0  0  0  0  0  0  0  0  0  0
    3.4202    7.9009   20.3866 C   0  0  0  0  0  0  0  0  0  0  0  0
   13.5280   10.3522   19.3586 C   0  0  0  0  0  0  0  0  0  0  0  0
    9.6923    5.6468   22.7891 C   0  0  0  0  0  0  0  0  0  0  0  0
   11.7756   10.2554   20.8841 N   0  0  0  0  0  0  0  0  0  0  0  0
    8.9876   11.9370   19.8757 O   0  0  0  0  0  0  0  0  0  0  0  0
    6.0167    8.4478   21.1089 C   0  0  0  0  0  0  0  0  0  0  0  0
   11.0002   10.8890   20.0262 C   0  0  0  0  0  0  0  0  0  0  0  0
    2.1721    7.7393   20.0315 O   0  0  0  0  0  0  0  0  0  0  0  0
    9.1107   10.3880   21.3769 N   0  0  0  0  0  0  0  0  0  0  0  0
    3.9102    9.2008   20.3124 C   0  0  0  0  0  0  0  0  0  0  0  0
   12.7292   10.9960   18.4597 C   0  0  0  0  0  0  0  0  0  0  0  0
    9.3798    6.6793   23.6625 C   0  0  0  0  0  0  0  0  0  0  0  0
   14.7425   10.0739   19.0802 O   0  0  0  0  0  0  0  0  0  0  0  0
    5.1894    9.4673   20.7118 C   0  0  0  0  0  0  0  0  0  0  0  0
    7.3773    8.8224   21.4870 C   0  0  0  0  0  0  0  0  0  0  0  0
    8.4391    6.6439   21.0235 C   0  0  0  0  0  0  0  0  0  0  0  0
    9.6494   11.1353   20.4167 C   0  0  0  0  0  0  0  0  0  0  0  0
    8.1431    7.6829   21.9046 C   0  0  0  0  0  0  0  0  0  0  0  0
    7.7796   10.1314   21.5115 N   0  0  0  0  0  0  0  0  0  0  0  0
    9.2768    5.6183   21.4437 C   0  0  0  0  0  0  0  0  0  0  0  0
    8.6315    7.7322   23.1768 C   0  0  0  0  0  0  0  0  0  0  0  0
   13.0537    9.9821   20.5781 C   0  0  0  0  0  0  0  0  0  0  0  0
   10.3850    4.6575   23.2386 O   0  0  0  0  0  0  0  0  0  0  0  0
    4.2069    6.8450   20.7994 C   0  0  0  0  0  0  0  0  0  0  0  0
    3.0726   10.1043   19.8522 O   0  0  0  0  0  0  0  0  0  0  0  0
    5.5057    7.1196   21.1155 C   0  0  0  0  0  0  0  0  0  0  0  0
    7.0367   11.0229   21.9948 O   0  0  0  0  0  0  0  0  0  0  0  0
  1  8  4  0
  1 12  4  0
  2  9  1  0
  2 11  4  0
  2 25  4  0
  3 12  4  0
  3 14  1  0
  3 23  4  0
  4 13  4  0
  4 21  4  0
  4 24  1  0
  5  8  4  0
  5 23  4  0
  6 18  2  0
  7 15  4  0
  7 16  1  0
  7 27  4  0
  8 18  1  0
 10 18  1  0
 10 20  1  0
 11 15  4  0
 11 26  1  0
 13 22  4  0
 16 19  1  0
 16 20  2  0
 17 19  4  0
 17 21  4  0
 19 22  4  0
 20 28  1  0
 25 27  4  0
M  END
$$$$

 Created by Python create_sdf_string function

 28 30  0  0  0  0  0  0  0  0999 V2000
   11.4592   11.2893   18.7941 C   0  0  0  0  0  0  0  0  0  0  0  0
    3.4202    7.9009   20.3866 C   0  0  0  0  0  0  0  0  0  0  0  0
   13.5280   10.3522   19.3586 C   0  0  0  0  0  0  0  0  0  0  0  0
    9.6923    5.6468   22.7891 C   0  0  0  0  0  0  0  0  0  0  0  0
   11.7756   10.2554   20.8841 N   0  0  0  0  0  0  0  0  0  0  0  0
    8.9876   11.9370   19.8757 O   0  0  0  0  0  0  0  0  0  0  0  0
    6.0167    8.4478   21.1089 C   0  0  0  0  0  0  0  0  0  0  0  0
   11.0002   10.8890   20.0262 C   0  0  0  0  0  0  0  0  0  0  0  0
    2.1721    7.7393   20.0315 O   0  0  0  0  0  0  0  0  0  0  0  0
    9.1107   10.3880   21.3769 N   0  0  0  0  0  0  0  0  0  0  0  0
    3.9102    9.2008   20.3124 C   0  0  0  0  0  0  0  0  0  0  0  0
   12.7292   10.9960   18.4597 C   0  0  0  0  0  0  0  0  0  0  0  0
    9.3798    6.6793   23.6625 C   0  0  0  0  0  0  0  0  0  0  0  0
   14.7425   10.0739   19.0802 O   0  0  0  0  0  0  0  0  0  0  0  0
    5.1894    9.4673   20.7118 C   0  0  0  0  0  0  0  0  0  0  0  0
    7.3773    8.8224   21.4870 C   0  0  0  0  0  0  0  0  0  0  0  0
    8.4391    6.6439   21.0235 C   0  0  0  0  0  0  0  0  0  0  0  0
    9.6494   11.1353   20.4167 C   0  0  0  0  0  0  0  0  0  0  0  0
    8.1431    7.6829   21.9046 C   0  0  0  0  0  0  0  0  0  0  0  0
    7.7796   10.1314   21.5115 N   0  0  0  0  0  0  0  0  0  0  0  0
    9.2768    5.6183   21.4437 C   0  0  0  0  0  0  0  0  0  0  0  0
    8.6315    7.7322   23.1768 C   0  0  0  0  0  0  0  0  0  0  0  0
   13.0537    9.9821   20.5781 C   0  0  0  0  0  0  0  0  0  0  0  0
   10.3850    4.6575   23.2386 O   0  0  0  0  0  0  0  0  0  0  0  0
    4.2069    6.8450   20.7994 C   0  0  0  0  0  0  0  0  0  0  0  0
    3.0726   10.1043   19.8522 O   0  0  0  0  0  0  0  0  0  0  0  0
    5.5057    7.1196   21.1155 C   0  0  0  0  0  0  0  0  0  0  0  0
    7.0367   11.0229   21.9948 O   0  0  0  0  0  0  0  0  0  0  0  0
  1  8  4  0
  1 12  4  0
  2  9  1  0
  2 11  4  0
  2 25  4  0
  3 12  4  0
  3 14  1  0
  3 23  4  0
  4 13  4  0
  4 21  4  0
  4 24  1  0
  5  8  4  0
  5 23  4  0
  6 18  2  0
  7 15  4  0
  7 16  1  0
  7 27  4  0
  8 18  1  0
 10 18  1  0
 10 20  1  0
 11 15  4  0
 11 26  1  0
 13 22  4  0
 16 19  1  0
 16 20  2  0
 17 19  4  0
 17 21  4  0
 19 22  4  0
 20 28  1  0
 25 27  4  0
M  END
$$$$

 Created by Python create_sdf_string function

 28 30  0  0  0  0  0  0  0  0999 V2000
   11.4592   11.2893   18.7941 C   0  0  0  0  0  0  0  0  0  0  0  0
    3.4202    7.9009   20.3866 C   0  0  0  0  0  0  0  0  0  0  0  0
   13.5280   10.3522   19.3586 C   0  0  0  0  0  0  0  0  0  0  0  0
    9.6923    5.6468   22.7891 C   0  0  0  0  0  0  0  0  0  0  0  0
   11.7756   10.2554   20.8841 N   0  0  0  0  0  0  0  0  0  0  0  0
    8.9876   11.9370   19.8757 O   0  0  0  0  0  0  0  0  0  0  0  0
    6.0167    8.4478   21.1089 C   0  0  0  0  0  0  0  0  0  0  0  0
   11.0002   10.8890   20.0262 C   0  0  0  0  0  0  0  0  0  0  0  0
    2.1721    7.7393   20.0315 O   0  0  0  0  0  0  0  0  0  0  0  0
    9.1107   10.3880   21.3769 N   0  0  0  0  0  0  0  0  0  0  0  0
    3.9102    9.2008   20.3124 C   0  0  0  0  0  0  0  0  0  0  0  0
   12.7292   10.9960   18.4597 C   0  0  0  0  0  0  0  0  0  0  0  0
    9.3798    6.6793   23.6625 C   0  0  0  0  0  0  0  0  0  0  0  0
   14.7425   10.0739   19.0802 O   0  0  0  0  0  0  0  0  0  0  0  0
    5.1894    9.4673   20.7118 C   0  0  0  0  0  0  0  0  0  0  0  0
    7.3773    8.8224   21.4870 C   0  0  0  0  0  0  0  0  0  0  0  0
    8.4391    6.6439   21.0235 C   0  0  0  0  0  0  0  0  0  0  0  0
    9.6494   11.1353   20.4167 C   0  0  0  0  0  0  0  0  0  0  0  0
    8.1431    7.6829   21.9046 C   0  0  0  0  0  0  0  0  0  0  0  0
    7.7796   10.1314   21.5115 N   0  0  0  0  0  0  0  0  0  0  0  0
    9.2768    5.6183   21.4437 C   0  0  0  0  0  0  0  0  0  0  0  0
    8.6315    7.7322   23.1768 C   0  0  0  0  0  0  0  0  0  0  0  0
   13.0537    9.9821   20.5781 C   0  0  0  0  0  0  0  0  0  0  0  0
   10.3850    4.6575   23.2386 O   0  0  0  0  0  0  0  0  0  0  0  0
    4.2069    6.8450   20.7994 C   0  0  0  0  0  0  0  0  0  0  0  0
    3.0726   10.1043   19.8522 O   0  0  0  0  0  0  0  0  0  0  0  0
    5.5057    7.1196   21.1155 C   0  0  0  0  0  0  0  0  0  0  0  0
    7.0367   11.0229   21.9948 O   0  0  0  0  0  0  0  0  0  0  0  0
  1  8  4  0
  1 12  4  0
  2  9  1  0
  2 11  4  0
  2 25  4  0
  3 12  4  0
  3 14  1  0
  3 23  4  0
  4 13  4  0
  4 21  4  0
  4 24  1  0
  5  8  4  0
  5 23  4  0
  6 18  2  0
  7 15  4  0
  7 16  1  0
  7 27  4  0
  8 18  1  0
 10 18  1  0
 10 20  1  0
 11 15  4  0
 11 26  1  0
 13 22  4  0
 16 19  1  0
 16 20  2  0
 17 19  4  0
 17 21  4  0
 19 22  4  0
 20 28  1  0
 25 27  4  0
M  END
$$$$

 Created by Python create_sdf_string function

 28 30  0  0  0  0  0  0  0  0999 V2000
   11.4592   11.2893   18.7941 C   0  0  0  0  0  0  0  0  0  0  0  0
    3.4202    7.9009   20.3866 C   0  0  0  0  0  0  0  0  0  0  0  0
   13.5280   10.3522   19.3586 C   0  0  0  0  0  0  0  0  0  0  0  0
    9.6923    5.6468   22.7891 C   0  0  0  0  0  0  0  0  0  0  0  0
   11.7756   10.2554   20.8841 N   0  0  0  0  0  0  0  0  0  0  0  0
    8.9876   11.9370   19.8757 O   0  0  0  0  0  0  0  0  0  0  0  0
    6.0167    8.4478   21.1089 C   0  0  0  0  0  0  0  0  0  0  0  0
   11.0002   10.8890   20.0262 C   0  0  0  0  0  0  0  0  0  0  0  0
    2.1721    7.7393   20.0315 O   0  0  0  0  0  0  0  0  0  0  0  0
    9.1107   10.3880   21.3769 N   0  0  0  0  0  0  0  0  0  0  0  0
    3.9102    9.2008   20.3124 C   0  0  0  0  0  0  0  0  0  0  0  0
   12.7292   10.9960   18.4597 C   0  0  0  0  0  0  0  0  0  0  0  0
    9.3798    6.6793   23.6625 C   0  0  0  0  0  0  0  0  0  0  0  0
   14.7425   10.0739   19.0802 O   0  0  0  0  0  0  0  0  0  0  0  0
    5.1894    9.4673   20.7118 C   0  0  0  0  0  0  0  0  0  0  0  0
    7.3773    8.8224   21.4870 C   0  0  0  0  0  0  0  0  0  0  0  0
    8.4391    6.6439   21.0235 C   0  0  0  0  0  0  0  0  0  0  0  0
    9.6494   11.1353   20.4167 C   0  0  0  0  0  0  0  0  0  0  0  0
    8.1431    7.6829   21.9046 C   0  0  0  0  0  0  0  0  0  0  0  0
    7.7796   10.1314   21.5115 N   0  0  0  0  0  0  0  0  0  0  0  0
    9.2768    5.6183   21.4437 C   0  0  0  0  0  0  0  0  0  0  0  0
    8.6315    7.7322   23.1768 C   0  0  0  0  0  0  0  0  0  0  0  0
   13.0537    9.9821   20.5781 C   0  0  0  0  0  0  0  0  0  0  0  0
   10.3850    4.6575   23.2386 O   0  0  0  0  0  0  0  0  0  0  0  0
    4.2069    6.8450   20.7994 C   0  0  0  0  0  0  0  0  0  0  0  0
    3.0726   10.1043   19.8522 O   0  0  0  0  0  0  0  0  0  0  0  0
    5.5057    7.1196   21.1155 C   0  0  0  0  0  0  0  0  0  0  0  0
    7.0367   11.0229   21.9948 O   0  0  0  0  0  0  0  0  0  0  0  0
  1  8  4  0
  1 12  4  0
  2  9  1  0
  2 11  4  0
  2 25  4  0
  3 12  4  0
  3 14  1  0
  3 23  4  0
  4 13  4  0
  4 21  4  0
  4 24  1  0
  5  8  4  0
  5 23  4  0
  6 18  2  0
  7 15  4  0
  7 16  1  0
  7 27  4  0
  8 18  1  0
 10 18  1  0
 10 20  1  0
 11 15  4  0
 11 26  1  0
 13 22  4  0
 16 19  1  0
 16 20  2  0
 17 19  4  0
 17 21  4  0
 19 22  4  0
 20 28  1  0
 25 27  4  0
M  END
$$$$

 Created by Python create_sdf_string function

 28 30  0  0  0  0  0  0  0  0999 V2000
   11.4592   11.2893   18.7941 C   0  0  0  0  0  0  0  0  0  0  0  0
    3.4202    7.9009   20.3866 C   0  0  0  0  0  0  0  0  0  0  0  0
   13.5280   10.3522   19.3586 C   0  0  0  0  0  0  0  0  0  0  0  0
    9.6923    5.6468   22.7891 C   0  0  0  0  0  0  0  0  0  0  0  0
   11.7756   10.2554   20.8841 N   0  0  0  0  0  0  0  0  0  0  0  0
    8.9876   11.9370   19.8757 O   0  0  0  0  0  0  0  0  0  0  0  0
    6.0167    8.4478   21.1089 C   0  0  0  0  0  0  0  0  0  0  0  0
   11.0002   10.8890   20.0262 C   0  0  0  0  0  0  0  0  0  0  0  0
    2.1721    7.7393   20.0315 O   0  0  0  0  0  0  0  0  0  0  0  0
    9.1107   10.3880   21.3769 N   0  0  0  0  0  0  0  0  0  0  0  0
    3.9102    9.2008   20.3124 C   0  0  0  0  0  0  0  0  0  0  0  0
   12.7292   10.9960   18.4597 C   0  0  0  0  0  0  0  0  0  0  0  0
    9.3798    6.6793   23.6625 C   0  0  0  0  0  0  0  0  0  0  0  0
   14.7425   10.0739   19.0802 O   0  0  0  0  0  0  0  0  0  0  0  0
    5.1894    9.4673   20.7118 C   0  0  0  0  0  0  0  0  0  0  0  0
    7.3773    8.8224   21.4870 C   0  0  0  0  0  0  0  0  0  0  0  0
    8.4391    6.6439   21.0235 C   0  0  0  0  0  0  0  0  0  0  0  0
    9.6494   11.1353   20.4167 C   0  0  0  0  0  0  0  0  0  0  0  0
    8.1431    7.6829   21.9046 C   0  0  0  0  0  0  0  0  0  0  0  0
    7.7796   10.1314   21.5115 N   0  0  0  0  0  0  0  0  0  0  0  0
    9.2768    5.6183   21.4437 C   0  0  0  0  0  0  0  0  0  0  0  0
    8.6315    7.7322   23.1768 C   0  0  0  0  0  0  0  0  0  0  0  0
   13.0537    9.9821   20.5781 C   0  0  0  0  0  0  0  0  0  0  0  0
   10.3850    4.6575   23.2386 O   0  0  0  0  0  0  0  0  0  0  0  0
    4.2069    6.8450   20.7994 C   0  0  0  0  0  0  0  0  0  0  0  0
    3.0726   10.1043   19.8522 O   0  0  0  0  0  0  0  0  0  0  0  0
    5.5057    7.1196   21.1155 C   0  0  0  0  0  0  0  0  0  0  0  0
    7.0367   11.0229   21.9948 O   0  0  0  0  0  0  0  0  0  0  0  0
  1  8  4  0
  1 12  4  0
  2  9  1  0
  2 11  4  0
  2 25  4  0
  3 12  4  0
  3 14  1  0
  3 23  4  0
  4 13  4  0
  4 21  4  0
  4 24  1  0
  5  8  4  0
  5 23  4  0
  6 18  2  0
  7 15  4  0
  7 16  1  0
  7 27  4  0
  8 18  1  0
 10 18  1  0
 10 20  1  0
 11 15  4  0
 11 26  1  0
 13 22  4  0
 16 19  1  0
 16 20  2  0
 17 19  4  0
 17 21  4  0
 19 22  4  0
 20 28  1  0
 25 27  4  0
M  END
$$$$

 Created by Python create_sdf_string function

 28 30  0  0  0  0  0  0  0  0999 V2000
   11.4592   11.2893   18.7941 C   0  0  0  0  0  0  0  0  0  0  0  0
    3.4202    7.9009   20.3866 C   0  0  0  0  0  0  0  0  0  0  0  0
   13.5280   10.3522   19.3586 C   0  0  0  0  0  0  0  0  0  0  0  0
    9.6923    5.6468   22.7891 C   0  0  0  0  0  0  0  0  0  0  0  0
   11.7756   10.2554   20.8841 N   0  0  0  0  0  0  0  0  0  0  0  0
    8.9876   11.9370   19.8757 O   0  0  0  0  0  0  0  0  0  0  0  0
    6.0167    8.4478   21.1089 C   0  0  0  0  0  0  0  0  0  0  0  0
   11.0002   10.8890   20.0262 C   0  0  0  0  0  0  0  0  0  0  0  0
    2.1721    7.7393   20.0315 O   0  0  0  0  0  0  0  0  0  0  0  0
    9.1107   10.3880   21.3769 N   0  0  0  0  0  0  0  0  0  0  0  0
    3.9102    9.2008   20.3124 C   0  0  0  0  0  0  0  0  0  0  0  0
   12.7292   10.9960   18.4597 C   0  0  0  0  0  0  0  0  0  0  0  0
    9.3798    6.6793   23.6625 C   0  0  0  0  0  0  0  0  0  0  0  0
   14.7425   10.0739   19.0802 O   0  0  0  0  0  0  0  0  0  0  0  0
    5.1894    9.4673   20.7118 C   0  0  0  0  0  0  0  0  0  0  0  0
    7.3773    8.8224   21.4870 C   0  0  0  0  0  0  0  0  0  0  0  0
    8.4391    6.6439   21.0235 C   0  0  0  0  0  0  0  0  0  0  0  0
    9.6494   11.1353   20.4167 C   0  0  0  0  0  0  0  0  0  0  0  0
    8.1431    7.6829   21.9046 C   0  0  0  0  0  0  0  0  0  0  0  0
    7.7796   10.1314   21.5115 N   0  0  0  0  0  0  0  0  0  0  0  0
    9.2768    5.6183   21.4437 C   0  0  0  0  0  0  0  0  0  0  0  0
    8.6315    7.7322   23.1768 C   0  0  0  0  0  0  0  0  0  0  0  0
   13.0537    9.9821   20.5781 C   0  0  0  0  0  0  0  0  0  0  0  0
   10.3850    4.6575   23.2386 O   0  0  0  0  0  0  0  0  0  0  0  0
    4.2069    6.8450   20.7994 C   0  0  0  0  0  0  0  0  0  0  0  0
    3.0726   10.1043   19.8522 O   0  0  0  0  0  0  0  0  0  0  0  0
    5.5057    7.1196   21.1155 C   0  0  0  0  0  0  0  0  0  0  0  0
    7.0367   11.0229   21.9948 O   0  0  0  0  0  0  0  0  0  0  0  0
  1  8  4  0
  1 12  4  0
  2  9  1  0
  2 11  4  0
  2 25  4  0
  3 12  4  0
  3 14  1  0
  3 23  4  0
  4 13  4  0
  4 21  4  0
  4 24  1  0
  5  8  4  0
  5 23  4  0
  6 18  2  0
  7 15  4  0
  7 16  1  0
  7 27  4  0
  8 18  1  0
 10 18  1  0
 10 20  1  0
 11 15  4  0
 11 26  1  0
 13 22  4  0
 16 19  1  0
 16 20  2  0
 17 19  4  0
 17 21  4  0
 19 22  4  0
 20 28  1  0
 25 27  4  0
M  END
$$$$

 Created by Python create_sdf_string function

 28 30  0  0  0  0  0  0  0  0999 V2000
   11.4592   11.2893   18.7941 C   0  0  0  0  0  0  0  0  0  0  0  0
    3.4202    7.9009   20.3866 C   0  0  0  0  0  0  0  0  0  0  0  0
   13.5280   10.3522   19.3586 C   0  0  0  0  0  0  0  0  0  0  0  0
    9.6923    5.6468   22.7891 C   0  0  0  0  0  0  0  0  0  0  0  0
   11.7756   10.2554   20.8841 N   0  0  0  0  0  0  0  0  0  0  0  0
    8.9876   11.9370   19.8757 O   0  0  0  0  0  0  0  0  0  0  0  0
    6.0167    8.4478   21.1089 C   0  0  0  0  0  0  0  0  0  0  0  0
   11.0002   10.8890   20.0262 C   0  0  0  0  0  0  0  0  0  0  0  0
    2.1721    7.7393   20.0315 O   0  0  0  0  0  0  0  0  0  0  0  0
    9.1107   10.3880   21.3769 N   0  0  0  0  0  0  0  0  0  0  0  0
    3.9102    9.2008   20.3124 C   0  0  0  0  0  0  0  0  0  0  0  0
   12.7292   10.9960   18.4597 C   0  0  0  0  0  0  0  0  0  0  0  0
    9.3798    6.6793   23.6625 C   0  0  0  0  0  0  0  0  0  0  0  0
   14.7425   10.0739   19.0802 O   0  0  0  0  0  0  0  0  0  0  0  0
    5.1894    9.4673   20.7118 C   0  0  0  0  0  0  0  0  0  0  0  0
    7.3773    8.8224   21.4870 C   0  0  0  0  0  0  0  0  0  0  0  0
    8.4391    6.6439   21.0235 C   0  0  0  0  0  0  0  0  0  0  0  0
    9.6494   11.1353   20.4167 C   0  0  0  0  0  0  0  0  0  0  0  0
    8.1431    7.6829   21.9046 C   0  0  0  0  0  0  0  0  0  0  0  0
    7.7796   10.1314   21.5115 N   0  0  0  0  0  0  0  0  0  0  0  0
    9.2768    5.6183   21.4437 C   0  0  0  0  0  0  0  0  0  0  0  0
    8.6315    7.7322   23.1768 C   0  0  0  0  0  0  0  0  0  0  0  0
   13.0537    9.9821   20.5781 C   0  0  0  0  0  0  0  0  0  0  0  0
   10.3850    4.6575   23.2386 O   0  0  0  0  0  0  0  0  0  0  0  0
    4.2069    6.8450   20.7994 C   0  0  0  0  0  0  0  0  0  0  0  0
    3.0726   10.1043   19.8522 O   0  0  0  0  0  0  0  0  0  0  0  0
    5.5057    7.1196   21.1155 C   0  0  0  0  0  0  0  0  0  0  0  0
    7.0367   11.0229   21.9948 O   0  0  0  0  0  0  0  0  0  0  0  0
  1  8  4  0
  1 12  4  0
  2  9  1  0
  2 11  4  0
  2 25  4  0
  3 12  4  0
  3 14  1  0
  3 23  4  0
  4 13  4  0
  4 21  4  0
  4 24  1  0
  5  8  4  0
  5 23  4  0
  6 18  2  0
  7 15  4  0
  7 16  1  0
  7 27  4  0
  8 18  1  0
 10 18  1  0
 10 20  1  0
 11 15  4  0
 11 26  1  0
 13 22  4  0
 16 19  1  0
 16 20  2  0
 17 19  4  0
 17 21  4  0
 19 22  4  0
 20 28  1  0
 25 27  4  0
M  END
$$$$

 Created by Python create_sdf_string function

 28 30  0  0  0  0  0  0  0  0999 V2000
   11.4592   11.2893   18.7941 C   0  0  0  0  0  0  0  0  0  0  0  0
    3.4202    7.9009   20.3866 C   0  0  0  0  0  0  0  0  0  0  0  0
   13.5280   10.3522   19.3586 C   0  0  0  0  0  0  0  0  0  0  0  0
    9.6923    5.6468   22.7891 C   0  0  0  0  0  0  0  0  0  0  0  0
   11.7756   10.2554   20.8841 N   0  0  0  0  0  0  0  0  0  0  0  0
    8.9876   11.9370   19.8757 O   0  0  0  0  0  0  0  0  0  0  0  0
    6.0167    8.4478   21.1089 C   0  0  0  0  0  0  0  0  0  0  0  0
   11.0002   10.8890   20.0262 C   0  0  0  0  0  0  0  0  0  0  0  0
    2.1721    7.7393   20.0315 O   0  0  0  0  0  0  0  0  0  0  0  0
    9.1107   10.3880   21.3769 N   0  0  0  0  0  0  0  0  0  0  0  0
    3.9102    9.2008   20.3124 C   0  0  0  0  0  0  0  0  0  0  0  0
   12.7292   10.9960   18.4597 C   0  0  0  0  0  0  0  0  0  0  0  0
    9.3798    6.6793   23.6625 C   0  0  0  0  0  0  0  0  0  0  0  0
   14.7425   10.0739   19.0802 O   0  0  0  0  0  0  0  0  0  0  0  0
    5.1894    9.4673   20.7118 C   0  0  0  0  0  0  0  0  0  0  0  0
    7.3773    8.8224   21.4870 C   0  0  0  0  0  0  0  0  0  0  0  0
    8.4391    6.6439   21.0235 C   0  0  0  0  0  0  0  0  0  0  0  0
    9.6494   11.1353   20.4167 C   0  0  0  0  0  0  0  0  0  0  0  0
    8.1431    7.6829   21.9046 C   0  0  0  0  0  0  0  0  0  0  0  0
    7.7796   10.1314   21.5115 N   0  0  0  0  0  0  0  0  0  0  0  0
    9.2768    5.6183   21.4437 C   0  0  0  0  0  0  0  0  0  0  0  0
    8.6315    7.7322   23.1768 C   0  0  0  0  0  0  0  0  0  0  0  0
   13.0537    9.9821   20.5781 C   0  0  0  0  0  0  0  0  0  0  0  0
   10.3850    4.6575   23.2386 O   0  0  0  0  0  0  0  0  0  0  0  0
    4.2069    6.8450   20.7994 C   0  0  0  0  0  0  0  0  0  0  0  0
    3.0726   10.1043   19.8522 O   0  0  0  0  0  0  0  0  0  0  0  0
    5.5057    7.1196   21.1155 C   0  0  0  0  0  0  0  0  0  0  0  0
    7.0367   11.0229   21.9948 O   0  0  0  0  0  0  0  0  0  0  0  0
  1  8  4  0
  1 12  4  0
  2  9  1  0
  2 11  4  0
  2 25  4  0
  3 12  4  0
  3 14  1  0
  3 23  4  0
  4 13  4  0
  4 21  4  0
  4 24  1  0
  5  8  4  0
  5 23  4  0
  6 18  2  0
  7 15  4  0
  7 16  1  0
  7 27  4  0
  8 18  1  0
 10 18  1  0
 10 20  1  0
 11 15  4  0
 11 26  1  0
 13 22  4  0
 16 19  1  0
 16 20  2  0
 17 19  4  0
 17 21  4  0
 19 22  4  0
 20 28  1  0
 25 27  4  0
M  END
$$$$

 Created by Python create_sdf_string function

 28 30  0  0  0  0  0  0  0  0999 V2000
   11.4592   11.2893   18.7941 C   0  0  0  0  0  0  0  0  0  0  0  0
    3.4202    7.9009   20.3866 C   0  0  0  0  0  0  0  0  0  0  0  0
   13.5280   10.3522   19.3586 C   0  0  0  0  0  0  0  0  0  0  0  0
    9.6923    5.6468   22.7891 C   0  0  0  0  0  0  0  0  0  0  0  0
   11.7756   10.2554   20.8841 N   0  0  0  0  0  0  0  0  0  0  0  0
    8.9876   11.9370   19.8757 O   0  0  0  0  0  0  0  0  0  0  0  0
    6.0167    8.4478   21.1089 C   0  0  0  0  0  0  0  0  0  0  0  0
   11.0002   10.8890   20.0262 C   0  0  0  0  0  0  0  0  0  0  0  0
    2.1721    7.7393   20.0315 O   0  0  0  0  0  0  0  0  0  0  0  0
    9.1107   10.3880   21.3769 N   0  0  0  0  0  0  0  0  0  0  0  0
    3.9102    9.2008   20.3124 C   0  0  0  0  0  0  0  0  0  0  0  0
   12.7292   10.9960   18.4597 C   0  0  0  0  0  0  0  0  0  0  0  0
    9.3798    6.6793   23.6625 C   0  0  0  0  0  0  0  0  0  0  0  0
   14.7425   10.0739   19.0802 O   0  0  0  0  0  0  0  0  0  0  0  0
    5.1894    9.4673   20.7118 C   0  0  0  0  0  0  0  0  0  0  0  0
    7.3773    8.8224   21.4870 C   0  0  0  0  0  0  0  0  0  0  0  0
    8.4391    6.6439   21.0235 C   0  0  0  0  0  0  0  0  0  0  0  0
    9.6494   11.1353   20.4167 C   0  0  0  0  0  0  0  0  0  0  0  0
    8.1431    7.6829   21.9046 C   0  0  0  0  0  0  0  0  0  0  0  0
    7.7796   10.1314   21.5115 N   0  0  0  0  0  0  0  0  0  0  0  0
    9.2768    5.6183   21.4437 C   0  0  0  0  0  0  0  0  0  0  0  0
    8.6315    7.7322   23.1768 C   0  0  0  0  0  0  0  0  0  0  0  0
   13.0537    9.9821   20.5781 C   0  0  0  0  0  0  0  0  0  0  0  0
   10.3850    4.6575   23.2386 O   0  0  0  0  0  0  0  0  0  0  0  0
    4.2069    6.8450   20.7994 C   0  0  0  0  0  0  0  0  0  0  0  0
    3.0726   10.1043   19.8522 O   0  0  0  0  0  0  0  0  0  0  0  0
    5.5057    7.1196   21.1155 C   0  0  0  0  0  0  0  0  0  0  0  0
    7.0367   11.0229   21.9948 O   0  0  0  0  0  0  0  0  0  0  0  0
  1  8  4  0
  1 12  4  0
  2  9  1  0
  2 11  4  0
  2 25  4  0
  3 12  4  0
  3 14  1  0
  3 23  4  0
  4 13  4  0
  4 21  4  0
  4 24  1  0
  5  8  4  0
  5 23  4  0
  6 18  2  0
  7 15  4  0
  7 16  1  0
  7 27  4  0
  8 18  1  0
 10 18  1  0
 10 20  1  0
 11 15  4  0
 11 26  1  0
 13 22  4  0
 16 19  1  0
 16 20  2  0
 17 19  4  0
 17 21  4  0
 19 22  4  0
 20 28  1  0
 25 27  4  0
M  END
$$$$

 Created by Python create_sdf_string function

 28 30  0  0  0  0  0  0  0  0999 V2000
   11.4592   11.2893   18.7941 C   0  0  0  0  0  0  0  0  0  0  0  0
    3.4202    7.9009   20.3866 C   0  0  0  0  0  0  0  0  0  0  0  0
   13.5280   10.3522   19.3586 C   0  0  0  0  0  0  0  0  0  0  0  0
    9.6923    5.6468   22.7891 C   0  0  0  0  0  0  0  0  0  0  0  0
   11.7756   10.2554   20.8841 N   0  0  0  0  0  0  0  0  0  0  0  0
    8.9876   11.9370   19.8757 O   0  0  0  0  0  0  0  0  0  0  0  0
    6.0167    8.4478   21.1089 C   0  0  0  0  0  0  0  0  0  0  0  0
   11.0002   10.8890   20.0262 C   0  0  0  0  0  0  0  0  0  0  0  0
    2.1721    7.7393   20.0315 O   0  0  0  0  0  0  0  0  0  0  0  0
    9.1107   10.3880   21.3769 N   0  0  0  0  0  0  0  0  0  0  0  0
    3.9102    9.2008   20.3124 C   0  0  0  0  0  0  0  0  0  0  0  0
   12.7292   10.9960   18.4597 C   0  0  0  0  0  0  0  0  0  0  0  0
    9.3798    6.6793   23.6625 C   0  0  0  0  0  0  0  0  0  0  0  0
   14.7425   10.0739   19.0802 O   0  0  0  0  0  0  0  0  0  0  0  0
    5.1894    9.4673   20.7118 C   0  0  0  0  0  0  0  0  0  0  0  0
    7.3773    8.8224   21.4870 C   0  0  0  0  0  0  0  0  0  0  0  0
    8.4391    6.6439   21.0235 C   0  0  0  0  0  0  0  0  0  0  0  0
    9.6494   11.1353   20.4167 C   0  0  0  0  0  0  0  0  0  0  0  0
    8.1431    7.6829   21.9046 C   0  0  0  0  0  0  0  0  0  0  0  0
    7.7796   10.1314   21.5115 N   0  0  0  0  0  0  0  0  0  0  0  0
    9.2768    5.6183   21.4437 C   0  0  0  0  0  0  0  0  0  0  0  0
    8.6315    7.7322   23.1768 C   0  0  0  0  0  0  0  0  0  0  0  0
   13.0537    9.9821   20.5781 C   0  0  0  0  0  0  0  0  0  0  0  0
   10.3850    4.6575   23.2386 O   0  0  0  0  0  0  0  0  0  0  0  0
    4.2069    6.8450   20.7994 C   0  0  0  0  0  0  0  0  0  0  0  0
    3.0726   10.1043   19.8522 O   0  0  0  0  0  0  0  0  0  0  0  0
    5.5057    7.1196   21.1155 C   0  0  0  0  0  0  0  0  0  0  0  0
    7.0367   11.0229   21.9948 O   0  0  0  0  0  0  0  0  0  0  0  0
  1  8  4  0
  1 12  4  0
  2  9  1  0
  2 11  4  0
  2 25  4  0
  3 12  4  0
  3 14  1  0
  3 23  4  0
  4 13  4  0
  4 21  4  0
  4 24  1  0
  5  8  4  0
  5 23  4  0
  6 18  2  0
  7 15  4  0
  7 16  1  0
  7 27  4  0
  8 18  1  0
 10 18  1  0
 10 20  1  0
 11 15  4  0
 11 26  1  0
 13 22  4  0
 16 19  1  0
 16 20  2  0
 17 19  4  0
 17 21  4  0
 19 22  4  0
 20 28  1  0
 25 27  4  0
M  END
$$$$

 Created by Python create_sdf_string function

 28 30  0  0  0  0  0  0  0  0999 V2000
   11.4592   11.2893   18.7941 C   0  0  0  0  0  0  0  0  0  0  0  0
    3.4202    7.9009   20.3866 C   0  0  0  0  0  0  0  0  0  0  0  0
   13.5280   10.3522   19.3586 C   0  0  0  0  0  0  0  0  0  0  0  0
    9.6923    5.6468   22.7891 C   0  0  0  0  0  0  0  0  0  0  0  0
   11.7756   10.2554   20.8841 N   0  0  0  0  0  0  0  0  0  0  0  0
    8.9876   11.9370   19.8757 O   0  0  0  0  0  0  0  0  0  0  0  0
    6.0167    8.4478   21.1089 C   0  0  0  0  0  0  0  0  0  0  0  0
   11.0002   10.8890   20.0262 C   0  0  0  0  0  0  0  0  0  0  0  0
    2.1721    7.7393   20.0315 O   0  0  0  0  0  0  0  0  0  0  0  0
    9.1107   10.3880   21.3769 N   0  0  0  0  0  0  0  0  0  0  0  0
    3.9102    9.2008   20.3124 C   0  0  0  0  0  0  0  0  0  0  0  0
   12.7292   10.9960   18.4597 C   0  0  0  0  0  0  0  0  0  0  0  0
    9.3798    6.6793   23.6625 C   0  0  0  0  0  0  0  0  0  0  0  0
   14.7425   10.0739   19.0802 O   0  0  0  0  0  0  0  0  0  0  0  0
    5.1894    9.4673   20.7118 C   0  0  0  0  0  0  0  0  0  0  0  0
    7.3773    8.8224   21.4870 C   0  0  0  0  0  0  0  0  0  0  0  0
    8.4391    6.6439   21.0235 C   0  0  0  0  0  0  0  0  0  0  0  0
    9.6494   11.1353   20.4167 C   0  0  0  0  0  0  0  0  0  0  0  0
    8.1431    7.6829   21.9046 C   0  0  0  0  0  0  0  0  0  0  0  0
    7.7796   10.1314   21.5115 N   0  0  0  0  0  0  0  0  0  0  0  0
    9.2768    5.6183   21.4437 C   0  0  0  0  0  0  0  0  0  0  0  0
    8.6315    7.7322   23.1768 C   0  0  0  0  0  0  0  0  0  0  0  0
   13.0537    9.9821   20.5781 C   0  0  0  0  0  0  0  0  0  0  0  0
   10.3850    4.6575   23.2386 O   0  0  0  0  0  0  0  0  0  0  0  0
    4.2069    6.8450   20.7994 C   0  0  0  0  0  0  0  0  0  0  0  0
    3.0726   10.1043   19.8522 O   0  0  0  0  0  0  0  0  0  0  0  0
    5.5057    7.1196   21.1155 C   0  0  0  0  0  0  0  0  0  0  0  0
    7.0367   11.0229   21.9948 O   0  0  0  0  0  0  0  0  0  0  0  0
  1  8  4  0
  1 12  4  0
  2  9  1  0
  2 11  4  0
  2 25  4  0
  3 12  4  0
  3 14  1  0
  3 23  4  0
  4 13  4  0
  4 21  4  0
  4 24  1  0
  5  8  4  0
  5 23  4  0
  6 18  2  0
  7 15  4  0
  7 16  1  0
  7 27  4  0
  8 18  1  0
 10 18  1  0
 10 20  1  0
 11 15  4  0
 11 26  1  0
 13 22  4  0
 16 19  1  0
 16 20  2  0
 17 19  4  0
 17 21  4  0
 19 22  4  0
 20 28  1  0
 25 27  4  0
M  END
$$$$

 Created by Python create_sdf_string function

 28 30  0  0  0  0  0  0  0  0999 V2000
   11.4592   11.2893   18.7941 C   0  0  0  0  0  0  0  0  0  0  0  0
    3.4202    7.9009   20.3866 C   0  0  0  0  0  0  0  0  0  0  0  0
   13.5280   10.3522   19.3586 C   0  0  0  0  0  0  0  0  0  0  0  0
    9.6923    5.6468   22.7891 C   0  0  0  0  0  0  0  0  0  0  0  0
   11.7756   10.2554   20.8841 N   0  0  0  0  0  0  0  0  0  0  0  0
    8.9876   11.9370   19.8757 O   0  0  0  0  0  0  0  0  0  0  0  0
    6.0167    8.4478   21.1089 C   0  0  0  0  0  0  0  0  0  0  0  0
   11.0002   10.8890   20.0262 C   0  0  0  0  0  0  0  0  0  0  0  0
    2.1721    7.7393   20.0315 O   0  0  0  0  0  0  0  0  0  0  0  0
    9.1107   10.3880   21.3769 N   0  0  0  0  0  0  0  0  0  0  0  0
    3.9102    9.2008   20.3124 C   0  0  0  0  0  0  0  0  0  0  0  0
   12.7292   10.9960   18.4597 C   0  0  0  0  0  0  0  0  0  0  0  0
    9.3798    6.6793   23.6625 C   0  0  0  0  0  0  0  0  0  0  0  0
   14.7425   10.0739   19.0802 O   0  0  0  0  0  0  0  0  0  0  0  0
    5.1894    9.4673   20.7118 C   0  0  0  0  0  0  0  0  0  0  0  0
    7.3773    8.8224   21.4870 C   0  0  0  0  0  0  0  0  0  0  0  0
    8.4391    6.6439   21.0235 C   0  0  0  0  0  0  0  0  0  0  0  0
    9.6494   11.1353   20.4167 C   0  0  0  0  0  0  0  0  0  0  0  0
    8.1431    7.6829   21.9046 C   0  0  0  0  0  0  0  0  0  0  0  0
    7.7796   10.1314   21.5115 N   0  0  0  0  0  0  0  0  0  0  0  0
    9.2768    5.6183   21.4437 C   0  0  0  0  0  0  0  0  0  0  0  0
    8.6315    7.7322   23.1768 C   0  0  0  0  0  0  0  0  0  0  0  0
   13.0537    9.9821   20.5781 C   0  0  0  0  0  0  0  0  0  0  0  0
   10.3850    4.6575   23.2386 O   0  0  0  0  0  0  0  0  0  0  0  0
    4.2069    6.8450   20.7994 C   0  0  0  0  0  0  0  0  0  0  0  0
    3.0726   10.1043   19.8522 O   0  0  0  0  0  0  0  0  0  0  0  0
    5.5057    7.1196   21.1155 C   0  0  0  0  0  0  0  0  0  0  0  0
    7.0367   11.0229   21.9948 O   0  0  0  0  0  0  0  0  0  0  0  0
  1  8  4  0
  1 12  4  0
  2  9  1  0
  2 11  4  0
  2 25  4  0
  3 12  4  0
  3 14  1  0
  3 23  4  0
  4 13  4  0
  4 21  4  0
  4 24  1  0
  5  8  4  0
  5 23  4  0
  6 18  2  0
  7 15  4  0
  7 16  1  0
  7 27  4  0
  8 18  1  0
 10 18  1  0
 10 20  1  0
 11 15  4  0
 11 26  1  0
 13 22  4  0
 16 19  1  0
 16 20  2  0
 17 19  4  0
 17 21  4  0
 19 22  4  0
 20 28  1  0
 25 27  4  0
M  END
$$$$

 Created by Python create_sdf_string function

 28 30  0  0  0  0  0  0  0  0999 V2000
   11.4592   11.2893   18.7941 C   0  0  0  0  0  0  0  0  0  0  0  0
    3.4202    7.9009   20.3866 C   0  0  0  0  0  0  0  0  0  0  0  0
   13.5280   10.3522   19.3586 C   0  0  0  0  0  0  0  0  0  0  0  0
    9.6923    5.6468   22.7891 C   0  0  0  0  0  0  0  0  0  0  0  0
   11.7756   10.2554   20.8841 N   0  0  0  0  0  0  0  0  0  0  0  0
    8.9876   11.9370   19.8757 O   0  0  0  0  0  0  0  0  0  0  0  0
    6.0167    8.4478   21.1089 C   0  0  0  0  0  0  0  0  0  0  0  0
   11.0002   10.8890   20.0262 C   0  0  0  0  0  0  0  0  0  0  0  0
    2.1721    7.7393   20.0315 O   0  0  0  0  0  0  0  0  0  0  0  0
    9.1107   10.3880   21.3769 N   0  0  0  0  0  0  0  0  0  0  0  0
    3.9102    9.2008   20.3124 C   0  0  0  0  0  0  0  0  0  0  0  0
   12.7292   10.9960   18.4597 C   0  0  0  0  0  0  0  0  0  0  0  0
    9.3798    6.6793   23.6625 C   0  0  0  0  0  0  0  0  0  0  0  0
   14.7425   10.0739   19.0802 O   0  0  0  0  0  0  0  0  0  0  0  0
    5.1894    9.4673   20.7118 C   0  0  0  0  0  0  0  0  0  0  0  0
    7.3773    8.8224   21.4870 C   0  0  0  0  0  0  0  0  0  0  0  0
    8.4391    6.6439   21.0235 C   0  0  0  0  0  0  0  0  0  0  0  0
    9.6494   11.1353   20.4167 C   0  0  0  0  0  0  0  0  0  0  0  0
    8.1431    7.6829   21.9046 C   0  0  0  0  0  0  0  0  0  0  0  0
    7.7796   10.1314   21.5115 N   0  0  0  0  0  0  0  0  0  0  0  0
    9.2768    5.6183   21.4437 C   0  0  0  0  0  0  0  0  0  0  0  0
    8.6315    7.7322   23.1768 C   0  0  0  0  0  0  0  0  0  0  0  0
   13.0537    9.9821   20.5781 C   0  0  0  0  0  0  0  0  0  0  0  0
   10.3850    4.6575   23.2386 O   0  0  0  0  0  0  0  0  0  0  0  0
    4.2069    6.8450   20.7994 C   0  0  0  0  0  0  0  0  0  0  0  0
    3.0726   10.1043   19.8522 O   0  0  0  0  0  0  0  0  0  0  0  0
    5.5057    7.1196   21.1155 C   0  0  0  0  0  0  0  0  0  0  0  0
    7.0367   11.0229   21.9948 O   0  0  0  0  0  0  0  0  0  0  0  0
  1  8  4  0
  1 12  4  0
  2  9  1  0
  2 11  4  0
  2 25  4  0
  3 12  4  0
  3 14  1  0
  3 23  4  0
  4 13  4  0
  4 21  4  0
  4 24  1  0
  5  8  4  0
  5 23  4  0
  6 18  2  0
  7 15  4  0
  7 16  1  0
  7 27  4  0
  8 18  1  0
 10 18  1  0
 10 20  1  0
 11 15  4  0
 11 26  1  0
 13 22  4  0
 16 19  1  0
 16 20  2  0
 17 19  4  0
 17 21  4  0
 19 22  4  0
 20 28  1  0
 25 27  4  0
M  END
$$$$

 Created by Python create_sdf_string function

 28 30  0  0  0  0  0  0  0  0999 V2000
   11.4592   11.2893   18.7941 C   0  0  0  0  0  0  0  0  0  0  0  0
    3.4202    7.9009   20.3866 C   0  0  0  0  0  0  0  0  0  0  0  0
   13.5280   10.3522   19.3586 C   0  0  0  0  0  0  0  0  0  0  0  0
    9.6923    5.6468   22.7891 C   0  0  0  0  0  0  0  0  0  0  0  0
   11.7756   10.2554   20.8841 N   0  0  0  0  0  0  0  0  0  0  0  0
    8.9876   11.9370   19.8757 O   0  0  0  0  0  0  0  0  0  0  0  0
    6.0167    8.4478   21.1089 C   0  0  0  0  0  0  0  0  0  0  0  0
   11.0002   10.8890   20.0262 C   0  0  0  0  0  0  0  0  0  0  0  0
    2.1721    7.7393   20.0315 O   0  0  0  0  0  0  0  0  0  0  0  0
    9.1107   10.3880   21.3769 N   0  0  0  0  0  0  0  0  0  0  0  0
    3.9102    9.2008   20.3124 C   0  0  0  0  0  0  0  0  0  0  0  0
   12.7292   10.9960   18.4597 C   0  0  0  0  0  0  0  0  0  0  0  0
    9.3798    6.6793   23.6625 C   0  0  0  0  0  0  0  0  0  0  0  0
   14.7425   10.0739   19.0802 O   0  0  0  0  0  0  0  0  0  0  0  0
    5.1894    9.4673   20.7118 C   0  0  0  0  0  0  0  0  0  0  0  0
    7.3773    8.8224   21.4870 C   0  0  0  0  0  0  0  0  0  0  0  0
    8.4391    6.6439   21.0235 C   0  0  0  0  0  0  0  0  0  0  0  0
    9.6494   11.1353   20.4167 C   0  0  0  0  0  0  0  0  0  0  0  0
    8.1431    7.6829   21.9046 C   0  0  0  0  0  0  0  0  0  0  0  0
    7.7796   10.1314   21.5115 N   0  0  0  0  0  0  0  0  0  0  0  0
    9.2768    5.6183   21.4437 C   0  0  0  0  0  0  0  0  0  0  0  0
    8.6315    7.7322   23.1768 C   0  0  0  0  0  0  0  0  0  0  0  0
   13.0537    9.9821   20.5781 C   0  0  0  0  0  0  0  0  0  0  0  0
   10.3850    4.6575   23.2386 O   0  0  0  0  0  0  0  0  0  0  0  0
    4.2069    6.8450   20.7994 C   0  0  0  0  0  0  0  0  0  0  0  0
    3.0726   10.1043   19.8522 O   0  0  0  0  0  0  0  0  0  0  0  0
    5.5057    7.1196   21.1155 C   0  0  0  0  0  0  0  0  0  0  0  0
    7.0367   11.0229   21.9948 O   0  0  0  0  0  0  0  0  0  0  0  0
  1  8  4  0
  1 12  4  0
  2  9  1  0
  2 11  4  0
  2 25  4  0
  3 12  4  0
  3 14  1  0
  3 23  4  0
  4 13  4  0
  4 21  4  0
  4 24  1  0
  5  8  4  0
  5 23  4  0
  6 18  2  0
  7 15  4  0
  7 16  1  0
  7 27  4  0
  8 18  1  0
 10 18  1  0
 10 20  1  0
 11 15  4  0
 11 26  1  0
 13 22  4  0
 16 19  1  0
 16 20  2  0
 17 19  4  0
 17 21  4  0
 19 22  4  0
 20 28  1  0
 25 27  4  0
M  END
$$$$

 Created by Python create_sdf_string function

 28 30  0  0  0  0  0  0  0  0999 V2000
   11.4592   11.2893   18.7941 C   0  0  0  0  0  0  0  0  0  0  0  0
    3.4202    7.9009   20.3866 C   0  0  0  0  0  0  0  0  0  0  0  0
   13.5280   10.3522   19.3586 C   0  0  0  0  0  0  0  0  0  0  0  0
    9.6923    5.6468   22.7891 C   0  0  0  0  0  0  0  0  0  0  0  0
   11.7756   10.2554   20.8841 N   0  0  0  0  0  0  0  0  0  0  0  0
    8.9876   11.9370   19.8757 O   0  0  0  0  0  0  0  0  0  0  0  0
    6.0167    8.4478   21.1089 C   0  0  0  0  0  0  0  0  0  0  0  0
   11.0002   10.8890   20.0262 C   0  0  0  0  0  0  0  0  0  0  0  0
    2.1721    7.7393   20.0315 O   0  0  0  0  0  0  0  0  0  0  0  0
    9.1107   10.3880   21.3769 N   0  0  0  0  0  0  0  0  0  0  0  0
    3.9102    9.2008   20.3124 C   0  0  0  0  0  0  0  0  0  0  0  0
   12.7292   10.9960   18.4597 C   0  0  0  0  0  0  0  0  0  0  0  0
    9.3798    6.6793   23.6625 C   0  0  0  0  0  0  0  0  0  0  0  0
   14.7425   10.0739   19.0802 O   0  0  0  0  0  0  0  0  0  0  0  0
    5.1894    9.4673   20.7118 C   0  0  0  0  0  0  0  0  0  0  0  0
    7.3773    8.8224   21.4870 C   0  0  0  0  0  0  0  0  0  0  0  0
    8.4391    6.6439   21.0235 C   0  0  0  0  0  0  0  0  0  0  0  0
    9.6494   11.1353   20.4167 C   0  0  0  0  0  0  0  0  0  0  0  0
    8.1431    7.6829   21.9046 C   0  0  0  0  0  0  0  0  0  0  0  0
    7.7796   10.1314   21.5115 N   0  0  0  0  0  0  0  0  0  0  0  0
    9.2768    5.6183   21.4437 C   0  0  0  0  0  0  0  0  0  0  0  0
    8.6315    7.7322   23.1768 C   0  0  0  0  0  0  0  0  0  0  0  0
   13.0537    9.9821   20.5781 C   0  0  0  0  0  0  0  0  0  0  0  0
   10.3850    4.6575   23.2386 O   0  0  0  0  0  0  0  0  0  0  0  0
    4.2069    6.8450   20.7994 C   0  0  0  0  0  0  0  0  0  0  0  0
    3.0726   10.1043   19.8522 O   0  0  0  0  0  0  0  0  0  0  0  0
    5.5057    7.1196   21.1155 C   0  0  0  0  0  0  0  0  0  0  0  0
    7.0367   11.0229   21.9948 O   0  0  0  0  0  0  0  0  0  0  0  0
  1  8  4  0
  1 12  4  0
  2  9  1  0
  2 11  4  0
  2 25  4  0
  3 12  4  0
  3 14  1  0
  3 23  4  0
  4 13  4  0
  4 21  4  0
  4 24  1  0
  5  8  4  0
  5 23  4  0
  6 18  2  0
  7 15  4  0
  7 16  1  0
  7 27  4  0
  8 18  1  0
 10 18  1  0
 10 20  1  0
 11 15  4  0
 11 26  1  0
 13 22  4  0
 16 19  1  0
 16 20  2  0
 17 19  4  0
 17 21  4  0
 19 22  4  0
 20 28  1  0
 25 27  4  0
M  END
$$$$

 Created by Python create_sdf_string function

 28 30  0  0  0  0  0  0  0  0999 V2000
   11.4592   11.2893   18.7941 C   0  0  0  0  0  0  0  0  0  0  0  0
    3.4202    7.9009   20.3866 C   0  0  0  0  0  0  0  0  0  0  0  0
   13.5280   10.3522   19.3586 C   0  0  0  0  0  0  0  0  0  0  0  0
    9.6923    5.6468   22.7891 C   0  0  0  0  0  0  0  0  0  0  0  0
   11.7756   10.2554   20.8841 N   0  0  0  0  0  0  0  0  0  0  0  0
    8.9876   11.9370   19.8757 O   0  0  0  0  0  0  0  0  0  0  0  0
    6.0167    8.4478   21.1089 C   0  0  0  0  0  0  0  0  0  0  0  0
   11.0002   10.8890   20.0262 C   0  0  0  0  0  0  0  0  0  0  0  0
    2.1721    7.7393   20.0315 O   0  0  0  0  0  0  0  0  0  0  0  0
    9.1107   10.3880   21.3769 N   0  0  0  0  0  0  0  0  0  0  0  0
    3.9102    9.2008   20.3124 C   0  0  0  0  0  0  0  0  0  0  0  0
   12.7292   10.9960   18.4597 C   0  0  0  0  0  0  0  0  0  0  0  0
    9.3798    6.6793   23.6625 C   0  0  0  0  0  0  0  0  0  0  0  0
   14.7425   10.0739   19.0802 O   0  0  0  0  0  0  0  0  0  0  0  0
    5.1894    9.4673   20.7118 C   0  0  0  0  0  0  0  0  0  0  0  0
    7.3773    8.8224   21.4870 C   0  0  0  0  0  0  0  0  0  0  0  0
    8.4391    6.6439   21.0235 C   0  0  0  0  0  0  0  0  0  0  0  0
    9.6494   11.1353   20.4167 C   0  0  0  0  0  0  0  0  0  0  0  0
    8.1431    7.6829   21.9046 C   0  0  0  0  0  0  0  0  0  0  0  0
    7.7796   10.1314   21.5115 N   0  0  0  0  0  0  0  0  0  0  0  0
    9.2768    5.6183   21.4437 C   0  0  0  0  0  0  0  0  0  0  0  0
    8.6315    7.7322   23.1768 C   0  0  0  0  0  0  0  0  0  0  0  0
   13.0537    9.9821   20.5781 C   0  0  0  0  0  0  0  0  0  0  0  0
   10.3850    4.6575   23.2386 O   0  0  0  0  0  0  0  0  0  0  0  0
    4.2069    6.8450   20.7994 C   0  0  0  0  0  0  0  0  0  0  0  0
    3.0726   10.1043   19.8522 O   0  0  0  0  0  0  0  0  0  0  0  0
    5.5057    7.1196   21.1155 C   0  0  0  0  0  0  0  0  0  0  0  0
    7.0367   11.0229   21.9948 O   0  0  0  0  0  0  0  0  0  0  0  0
  1  8  4  0
  1 12  4  0
  2  9  1  0
  2 11  4  0
  2 25  4  0
  3 12  4  0
  3 14  1  0
  3 23  4  0
  4 13  4  0
  4 21  4  0
  4 24  1  0
  5  8  4  0
  5 23  4  0
  6 18  2  0
  7 15  4  0
  7 16  1  0
  7 27  4  0
  8 18  1  0
 10 18  1  0
 10 20  1  0
 11 15  4  0
 11 26  1  0
 13 22  4  0
 16 19  1  0
 16 20  2  0
 17 19  4  0
 17 21  4  0
 19 22  4  0
 20 28  1  0
 25 27  4  0
M  END
$$$$

 Created by Python create_sdf_string function

 28 30  0  0  0  0  0  0  0  0999 V2000
   11.4592   11.2893   18.7941 C   0  0  0  0  0  0  0  0  0  0  0  0
    3.4202    7.9009   20.3866 C   0  0  0  0  0  0  0  0  0  0  0  0
   13.5280   10.3522   19.3586 C   0  0  0  0  0  0  0  0  0  0  0  0
    9.6923    5.6468   22.7891 C   0  0  0  0  0  0  0  0  0  0  0  0
   11.7756   10.2554   20.8841 N   0  0  0  0  0  0  0  0  0  0  0  0
    8.9876   11.9370   19.8757 O   0  0  0  0  0  0  0  0  0  0  0  0
    6.0167    8.4478   21.1089 C   0  0  0  0  0  0  0  0  0  0  0  0
   11.0002   10.8890   20.0262 C   0  0  0  0  0  0  0  0  0  0  0  0
    2.1721    7.7393   20.0315 O   0  0  0  0  0  0  0  0  0  0  0  0
    9.1107   10.3880   21.3769 N   0  0  0  0  0  0  0  0  0  0  0  0
    3.9102    9.2008   20.3124 C   0  0  0  0  0  0  0  0  0  0  0  0
   12.7292   10.9960   18.4597 C   0  0  0  0  0  0  0  0  0  0  0  0
    9.3798    6.6793   23.6625 C   0  0  0  0  0  0  0  0  0  0  0  0
   14.7425   10.0739   19.0802 O   0  0  0  0  0  0  0  0  0  0  0  0
    5.1894    9.4673   20.7118 C   0  0  0  0  0  0  0  0  0  0  0  0
    7.3773    8.8224   21.4870 C   0  0  0  0  0  0  0  0  0  0  0  0
    8.4391    6.6439   21.0235 C   0  0  0  0  0  0  0  0  0  0  0  0
    9.6494   11.1353   20.4167 C   0  0  0  0  0  0  0  0  0  0  0  0
    8.1431    7.6829   21.9046 C   0  0  0  0  0  0  0  0  0  0  0  0
    7.7796   10.1314   21.5115 N   0  0  0  0  0  0  0  0  0  0  0  0
    9.2768    5.6183   21.4437 C   0  0  0  0  0  0  0  0  0  0  0  0
    8.6315    7.7322   23.1768 C   0  0  0  0  0  0  0  0  0  0  0  0
   13.0537    9.9821   20.5781 C   0  0  0  0  0  0  0  0  0  0  0  0
   10.3850    4.6575   23.2386 O   0  0  0  0  0  0  0  0  0  0  0  0
    4.2069    6.8450   20.7994 C   0  0  0  0  0  0  0  0  0  0  0  0
    3.0726   10.1043   19.8522 O   0  0  0  0  0  0  0  0  0  0  0  0
    5.5057    7.1196   21.1155 C   0  0  0  0  0  0  0  0  0  0  0  0
    7.0367   11.0229   21.9948 O   0  0  0  0  0  0  0  0  0  0  0  0
  1  8  4  0
  1 12  4  0
  2  9  1  0
  2 11  4  0
  2 25  4  0
  3 12  4  0
  3 14  1  0
  3 23  4  0
  4 13  4  0
  4 21  4  0
  4 24  1  0
  5  8  4  0
  5 23  4  0
  6 18  2  0
  7 15  4  0
  7 16  1  0
  7 27  4  0
  8 18  1  0
 10 18  1  0
 10 20  1  0
 11 15  4  0
 11 26  1  0
 13 22  4  0
 16 19  1  0
 16 20  2  0
 17 19  4  0
 17 21  4  0
 19 22  4  0
 20 28  1  0
 25 27  4  0
M  END
$$$$

 Created by Python create_sdf_string function

 28 30  0  0  0  0  0  0  0  0999 V2000
   11.4592   11.2893   18.7941 C   0  0  0  0  0  0  0  0  0  0  0  0
    3.4202    7.9009   20.3866 C   0  0  0  0  0  0  0  0  0  0  0  0
   13.5280   10.3522   19.3586 C   0  0  0  0  0  0  0  0  0  0  0  0
    9.6923    5.6468   22.7891 C   0  0  0  0  0  0  0  0  0  0  0  0
   11.7756   10.2554   20.8841 N   0  0  0  0  0  0  0  0  0  0  0  0
    8.9876   11.9370   19.8757 O   0  0  0  0  0  0  0  0  0  0  0  0
    6.0167    8.4478   21.1089 C   0  0  0  0  0  0  0  0  0  0  0  0
   11.0002   10.8890   20.0262 C   0  0  0  0  0  0  0  0  0  0  0  0
    2.1721    7.7393   20.0315 O   0  0  0  0  0  0  0  0  0  0  0  0
    9.1107   10.3880   21.3769 N   0  0  0  0  0  0  0  0  0  0  0  0
    3.9102    9.2008   20.3124 C   0  0  0  0  0  0  0  0  0  0  0  0
   12.7292   10.9960   18.4597 C   0  0  0  0  0  0  0  0  0  0  0  0
    9.3798    6.6793   23.6625 C   0  0  0  0  0  0  0  0  0  0  0  0
   14.7425   10.0739   19.0802 O   0  0  0  0  0  0  0  0  0  0  0  0
    5.1894    9.4673   20.7118 C   0  0  0  0  0  0  0  0  0  0  0  0
    7.3773    8.8224   21.4870 C   0  0  0  0  0  0  0  0  0  0  0  0
    8.4391    6.6439   21.0235 C   0  0  0  0  0  0  0  0  0  0  0  0
    9.6494   11.1353   20.4167 C   0  0  0  0  0  0  0  0  0  0  0  0
    8.1431    7.6829   21.9046 C   0  0  0  0  0  0  0  0  0  0  0  0
    7.7796   10.1314   21.5115 N   0  0  0  0  0  0  0  0  0  0  0  0
    9.2768    5.6183   21.4437 C   0  0  0  0  0  0  0  0  0  0  0  0
    8.6315    7.7322   23.1768 C   0  0  0  0  0  0  0  0  0  0  0  0
   13.0537    9.9821   20.5781 C   0  0  0  0  0  0  0  0  0  0  0  0
   10.3850    4.6575   23.2386 O   0  0  0  0  0  0  0  0  0  0  0  0
    4.2069    6.8450   20.7994 C   0  0  0  0  0  0  0  0  0  0  0  0
    3.0726   10.1043   19.8522 O   0  0  0  0  0  0  0  0  0  0  0  0
    5.5057    7.1196   21.1155 C   0  0  0  0  0  0  0  0  0  0  0  0
    7.0367   11.0229   21.9948 O   0  0  0  0  0  0  0  0  0  0  0  0
  1  8  4  0
  1 12  4  0
  2  9  1  0
  2 11  4  0
  2 25  4  0
  3 12  4  0
  3 14  1  0
  3 23  4  0
  4 13  4  0
  4 21  4  0
  4 24  1  0
  5  8  4  0
  5 23  4  0
  6 18  2  0
  7 15  4  0
  7 16  1  0
  7 27  4  0
  8 18  1  0
 10 18  1  0
 10 20  1  0
 11 15  4  0
 11 26  1  0
 13 22  4  0
 16 19  1  0
 16 20  2  0
 17 19  4  0
 17 21  4  0
 19 22  4  0
 20 28  1  0
 25 27  4  0
M  END
$$$$

 Created by Python create_sdf_string function

 28 30  0  0  0  0  0  0  0  0999 V2000
   11.4592   11.2893   18.7941 C   0  0  0  0  0  0  0  0  0  0  0  0
    3.4202    7.9009   20.3866 C   0  0  0  0  0  0  0  0  0  0  0  0
   13.5280   10.3522   19.3586 C   0  0  0  0  0  0  0  0  0  0  0  0
    9.6923    5.6468   22.7891 C   0  0  0  0  0  0  0  0  0  0  0  0
   11.7756   10.2554   20.8841 N   0  0  0  0  0  0  0  0  0  0  0  0
    8.9876   11.9370   19.8757 O   0  0  0  0  0  0  0  0  0  0  0  0
    6.0167    8.4478   21.1089 C   0  0  0  0  0  0  0  0  0  0  0  0
   11.0002   10.8890   20.0262 C   0  0  0  0  0  0  0  0  0  0  0  0
    2.1721    7.7393   20.0315 O   0  0  0  0  0  0  0  0  0  0  0  0
    9.1107   10.3880   21.3769 N   0  0  0  0  0  0  0  0  0  0  0  0
    3.9102    9.2008   20.3124 C   0  0  0  0  0  0  0  0  0  0  0  0
   12.7292   10.9960   18.4597 C   0  0  0  0  0  0  0  0  0  0  0  0
    9.3798    6.6793   23.6625 C   0  0  0  0  0  0  0  0  0  0  0  0
   14.7425   10.0739   19.0802 O   0  0  0  0  0  0  0  0  0  0  0  0
    5.1894    9.4673   20.7118 C   0  0  0  0  0  0  0  0  0  0  0  0
    7.3773    8.8224   21.4870 C   0  0  0  0  0  0  0  0  0  0  0  0
    8.4391    6.6439   21.0235 C   0  0  0  0  0  0  0  0  0  0  0  0
    9.6494   11.1353   20.4167 C   0  0  0  0  0  0  0  0  0  0  0  0
    8.1431    7.6829   21.9046 C   0  0  0  0  0  0  0  0  0  0  0  0
    7.7796   10.1314   21.5115 N   0  0  0  0  0  0  0  0  0  0  0  0
    9.2768    5.6183   21.4437 C   0  0  0  0  0  0  0  0  0  0  0  0
    8.6315    7.7322   23.1768 C   0  0  0  0  0  0  0  0  0  0  0  0
   13.0537    9.9821   20.5781 C   0  0  0  0  0  0  0  0  0  0  0  0
   10.3850    4.6575   23.2386 O   0  0  0  0  0  0  0  0  0  0  0  0
    4.2069    6.8450   20.7994 C   0  0  0  0  0  0  0  0  0  0  0  0
    3.0726   10.1043   19.8522 O   0  0  0  0  0  0  0  0  0  0  0  0
    5.5057    7.1196   21.1155 C   0  0  0  0  0  0  0  0  0  0  0  0
    7.0367   11.0229   21.9948 O   0  0  0  0  0  0  0  0  0  0  0  0
  1  8  4  0
  1 12  4  0
  2  9  1  0
  2 11  4  0
  2 25  4  0
  3 12  4  0
  3 14  1  0
  3 23  4  0
  4 13  4  0
  4 21  4  0
  4 24  1  0
  5  8  4  0
  5 23  4  0
  6 18  2  0
  7 15  4  0
  7 16  1  0
  7 27  4  0
  8 18  1  0
 10 18  1  0
 10 20  1  0
 11 15  4  0
 11 26  1  0
 13 22  4  0
 16 19  1  0
 16 20  2  0
 17 19  4  0
 17 21  4  0
 19 22  4  0
 20 28  1  0
 25 27  4  0
M  END
$$$$

 Created by Python create_sdf_string function

 28 30  0  0  0  0  0  0  0  0999 V2000
   11.4592   11.2893   18.7941 C   0  0  0  0  0  0  0  0  0  0  0  0
    3.4202    7.9009   20.3866 C   0  0  0  0  0  0  0  0  0  0  0  0
   13.5280   10.3522   19.3586 C   0  0  0  0  0  0  0  0  0  0  0  0
    9.6923    5.6468   22.7891 C   0  0  0  0  0  0  0  0  0  0  0  0
   11.7756   10.2554   20.8841 N   0  0  0  0  0  0  0  0  0  0  0  0
    8.9876   11.9370   19.8757 O   0  0  0  0  0  0  0  0  0  0  0  0
    6.0167    8.4478   21.1089 C   0  0  0  0  0  0  0  0  0  0  0  0
   11.0002   10.8890   20.0262 C   0  0  0  0  0  0  0  0  0  0  0  0
    2.1721    7.7393   20.0315 O   0  0  0  0  0  0  0  0  0  0  0  0
    9.1107   10.3880   21.3769 N   0  0  0  0  0  0  0  0  0  0  0  0
    3.9102    9.2008   20.3124 C   0  0  0  0  0  0  0  0  0  0  0  0
   12.7292   10.9960   18.4597 C   0  0  0  0  0  0  0  0  0  0  0  0
    9.3798    6.6793   23.6625 C   0  0  0  0  0  0  0  0  0  0  0  0
   14.7425   10.0739   19.0802 O   0  0  0  0  0  0  0  0  0  0  0  0
    5.1894    9.4673   20.7118 C   0  0  0  0  0  0  0  0  0  0  0  0
    7.3773    8.8224   21.4870 C   0  0  0  0  0  0  0  0  0  0  0  0
    8.4391    6.6439   21.0235 C   0  0  0  0  0  0  0  0  0  0  0  0
    9.6494   11.1353   20.4167 C   0  0  0  0  0  0  0  0  0  0  0  0
    8.1431    7.6829   21.9046 C   0  0  0  0  0  0  0  0  0  0  0  0
    7.7796   10.1314   21.5115 N   0  0  0  0  0  0  0  0  0  0  0  0
    9.2768    5.6183   21.4437 C   0  0  0  0  0  0  0  0  0  0  0  0
    8.6315    7.7322   23.1768 C   0  0  0  0  0  0  0  0  0  0  0  0
   13.0537    9.9821   20.5781 C   0  0  0  0  0  0  0  0  0  0  0  0
   10.3850    4.6575   23.2386 O   0  0  0  0  0  0  0  0  0  0  0  0
    4.2069    6.8450   20.7994 C   0  0  0  0  0  0  0  0  0  0  0  0
    3.0726   10.1043   19.8522 O   0  0  0  0  0  0  0  0  0  0  0  0
    5.5057    7.1196   21.1155 C   0  0  0  0  0  0  0  0  0  0  0  0
    7.0367   11.0229   21.9948 O   0  0  0  0  0  0  0  0  0  0  0  0
  1  8  4  0
  1 12  4  0
  2  9  1  0
  2 11  4  0
  2 25  4  0
  3 12  4  0
  3 14  1  0
  3 23  4  0
  4 13  4  0
  4 21  4  0
  4 24  1  0
  5  8  4  0
  5 23  4  0
  6 18  2  0
  7 15  4  0
  7 16  1  0
  7 27  4  0
  8 18  1  0
 10 18  1  0
 10 20  1  0
 11 15  4  0
 11 26  1  0
 13 22  4  0
 16 19  1  0
 16 20  2  0
 17 19  4  0
 17 21  4  0
 19 22  4  0
 20 28  1  0
 25 27  4  0
M  END
$$$$

 Created by Python create_sdf_string function

 28 30  0  0  0  0  0  0  0  0999 V2000
   11.4592   11.2893   18.7941 C   0  0  0  0  0  0  0  0  0  0  0  0
    3.4202    7.9009   20.3866 C   0  0  0  0  0  0  0  0  0  0  0  0
   13.5280   10.3522   19.3586 C   0  0  0  0  0  0  0  0  0  0  0  0
    9.6923    5.6468   22.7891 C   0  0  0  0  0  0  0  0  0  0  0  0
   11.7756   10.2554   20.8841 N   0  0  0  0  0  0  0  0  0  0  0  0
    8.9876   11.9370   19.8757 O   0  0  0  0  0  0  0  0  0  0  0  0
    6.0167    8.4478   21.1089 C   0  0  0  0  0  0  0  0  0  0  0  0
   11.0002   10.8890   20.0262 C   0  0  0  0  0  0  0  0  0  0  0  0
    2.1721    7.7393   20.0315 O   0  0  0  0  0  0  0  0  0  0  0  0
    9.1107   10.3880   21.3769 N   0  0  0  0  0  0  0  0  0  0  0  0
    3.9102    9.2008   20.3124 C   0  0  0  0  0  0  0  0  0  0  0  0
   12.7292   10.9960   18.4597 C   0  0  0  0  0  0  0  0  0  0  0  0
    9.3798    6.6793   23.6625 C   0  0  0  0  0  0  0  0  0  0  0  0
   14.7425   10.0739   19.0802 O   0  0  0  0  0  0  0  0  0  0  0  0
    5.1894    9.4673   20.7118 C   0  0  0  0  0  0  0  0  0  0  0  0
    7.3773    8.8224   21.4870 C   0  0  0  0  0  0  0  0  0  0  0  0
    8.4391    6.6439   21.0235 C   0  0  0  0  0  0  0  0  0  0  0  0
    9.6494   11.1353   20.4167 C   0  0  0  0  0  0  0  0  0  0  0  0
    8.1431    7.6829   21.9046 C   0  0  0  0  0  0  0  0  0  0  0  0
    7.7796   10.1314   21.5115 N   0  0  0  0  0  0  0  0  0  0  0  0
    9.2768    5.6183   21.4437 C   0  0  0  0  0  0  0  0  0  0  0  0
    8.6315    7.7322   23.1768 C   0  0  0  0  0  0  0  0  0  0  0  0
   13.0537    9.9821   20.5781 C   0  0  0  0  0  0  0  0  0  0  0  0
   10.3850    4.6575   23.2386 O   0  0  0  0  0  0  0  0  0  0  0  0
    4.2069    6.8450   20.7994 C   0  0  0  0  0  0  0  0  0  0  0  0
    3.0726   10.1043   19.8522 O   0  0  0  0  0  0  0  0  0  0  0  0
    5.5057    7.1196   21.1155 C   0  0  0  0  0  0  0  0  0  0  0  0
    7.0367   11.0229   21.9948 O   0  0  0  0  0  0  0  0  0  0  0  0
  1  8  4  0
  1 12  4  0
  2  9  1  0
  2 11  4  0
  2 25  4  0
  3 12  4  0
  3 14  1  0
  3 23  4  0
  4 13  4  0
  4 21  4  0
  4 24  1  0
  5  8  4  0
  5 23  4  0
  6 18  2  0
  7 15  4  0
  7 16  1  0
  7 27  4  0
  8 18  1  0
 10 18  1  0
 10 20  1  0
 11 15  4  0
 11 26  1  0
 13 22  4  0
 16 19  1  0
 16 20  2  0
 17 19  4  0
 17 21  4  0
 19 22  4  0
 20 28  1  0
 25 27  4  0
M  END
$$$$

 Created by Python create_sdf_string function

 28 30  0  0  0  0  0  0  0  0999 V2000
   11.4592   11.2893   18.7941 C   0  0  0  0  0  0  0  0  0  0  0  0
    3.4202    7.9009   20.3866 C   0  0  0  0  0  0  0  0  0  0  0  0
   13.5280   10.3522   19.3586 C   0  0  0  0  0  0  0  0  0  0  0  0
    9.6923    5.6468   22.7891 C   0  0  0  0  0  0  0  0  0  0  0  0
   11.7756   10.2554   20.8841 N   0  0  0  0  0  0  0  0  0  0  0  0
    8.9876   11.9370   19.8757 O   0  0  0  0  0  0  0  0  0  0  0  0
    6.0167    8.4478   21.1089 C   0  0  0  0  0  0  0  0  0  0  0  0
   11.0002   10.8890   20.0262 C   0  0  0  0  0  0  0  0  0  0  0  0
    2.1721    7.7393   20.0315 O   0  0  0  0  0  0  0  0  0  0  0  0
    9.1107   10.3880   21.3769 N   0  0  0  0  0  0  0  0  0  0  0  0
    3.9102    9.2008   20.3124 C   0  0  0  0  0  0  0  0  0  0  0  0
   12.7292   10.9960   18.4597 C   0  0  0  0  0  0  0  0  0  0  0  0
    9.3798    6.6793   23.6625 C   0  0  0  0  0  0  0  0  0  0  0  0
   14.7425   10.0739   19.0802 O   0  0  0  0  0  0  0  0  0  0  0  0
    5.1894    9.4673   20.7118 C   0  0  0  0  0  0  0  0  0  0  0  0
    7.3773    8.8224   21.4870 C   0  0  0  0  0  0  0  0  0  0  0  0
    8.4391    6.6439   21.0235 C   0  0  0  0  0  0  0  0  0  0  0  0
    9.6494   11.1353   20.4167 C   0  0  0  0  0  0  0  0  0  0  0  0
    8.1431    7.6829   21.9046 C   0  0  0  0  0  0  0  0  0  0  0  0
    7.7796   10.1314   21.5115 N   0  0  0  0  0  0  0  0  0  0  0  0
    9.2768    5.6183   21.4437 C   0  0  0  0  0  0  0  0  0  0  0  0
    8.6315    7.7322   23.1768 C   0  0  0  0  0  0  0  0  0  0  0  0
   13.0537    9.9821   20.5781 C   0  0  0  0  0  0  0  0  0  0  0  0
   10.3850    4.6575   23.2386 O   0  0  0  0  0  0  0  0  0  0  0  0
    4.2069    6.8450   20.7994 C   0  0  0  0  0  0  0  0  0  0  0  0
    3.0726   10.1043   19.8522 O   0  0  0  0  0  0  0  0  0  0  0  0
    5.5057    7.1196   21.1155 C   0  0  0  0  0  0  0  0  0  0  0  0
    7.0367   11.0229   21.9948 O   0  0  0  0  0  0  0  0  0  0  0  0
  1  8  4  0
  1 12  4  0
  2  9  1  0
  2 11  4  0
  2 25  4  0
  3 12  4  0
  3 14  1  0
  3 23  4  0
  4 13  4  0
  4 21  4  0
  4 24  1  0
  5  8  4  0
  5 23  4  0
  6 18  2  0
  7 15  4  0
  7 16  1  0
  7 27  4  0
  8 18  1  0
 10 18  1  0
 10 20  1  0
 11 15  4  0
 11 26  1  0
 13 22  4  0
 16 19  1  0
 16 20  2  0
 17 19  4  0
 17 21  4  0
 19 22  4  0
 20 28  1  0
 25 27  4  0
M  END
$$$$

 Created by Python create_sdf_string function

 28 30  0  0  0  0  0  0  0  0999 V2000
   11.4592   11.2893   18.7941 C   0  0  0  0  0  0  0  0  0  0  0  0
    3.4202    7.9009   20.3866 C   0  0  0  0  0  0  0  0  0  0  0  0
   13.5280   10.3522   19.3586 C   0  0  0  0  0  0  0  0  0  0  0  0
    9.6923    5.6468   22.7891 C   0  0  0  0  0  0  0  0  0  0  0  0
   11.7756   10.2554   20.8841 N   0  0  0  0  0  0  0  0  0  0  0  0
    8.9876   11.9370   19.8757 O   0  0  0  0  0  0  0  0  0  0  0  0
    6.0167    8.4478   21.1089 C   0  0  0  0  0  0  0  0  0  0  0  0
   11.0002   10.8890   20.0262 C   0  0  0  0  0  0  0  0  0  0  0  0
    2.1721    7.7393   20.0315 O   0  0  0  0  0  0  0  0  0  0  0  0
    9.1107   10.3880   21.3769 N   0  0  0  0  0  0  0  0  0  0  0  0
    3.9102    9.2008   20.3124 C   0  0  0  0  0  0  0  0  0  0  0  0
   12.7292   10.9960   18.4597 C   0  0  0  0  0  0  0  0  0  0  0  0
    9.3798    6.6793   23.6625 C   0  0  0  0  0  0  0  0  0  0  0  0
   14.7425   10.0739   19.0802 O   0  0  0  0  0  0  0  0  0  0  0  0
    5.1894    9.4673   20.7118 C   0  0  0  0  0  0  0  0  0  0  0  0
    7.3773    8.8224   21.4870 C   0  0  0  0  0  0  0  0  0  0  0  0
    8.4391    6.6439   21.0235 C   0  0  0  0  0  0  0  0  0  0  0  0
    9.6494   11.1353   20.4167 C   0  0  0  0  0  0  0  0  0  0  0  0
    8.1431    7.6829   21.9046 C   0  0  0  0  0  0  0  0  0  0  0  0
    7.7796   10.1314   21.5115 N   0  0  0  0  0  0  0  0  0  0  0  0
    9.2768    5.6183   21.4437 C   0  0  0  0  0  0  0  0  0  0  0  0
    8.6315    7.7322   23.1768 C   0  0  0  0  0  0  0  0  0  0  0  0
   13.0537    9.9821   20.5781 C   0  0  0  0  0  0  0  0  0  0  0  0
   10.3850    4.6575   23.2386 O   0  0  0  0  0  0  0  0  0  0  0  0
    4.2069    6.8450   20.7994 C   0  0  0  0  0  0  0  0  0  0  0  0
    3.0726   10.1043   19.8522 O   0  0  0  0  0  0  0  0  0  0  0  0
    5.5057    7.1196   21.1155 C   0  0  0  0  0  0  0  0  0  0  0  0
    7.0367   11.0229   21.9948 O   0  0  0  0  0  0  0  0  0  0  0  0
  1  8  4  0
  1 12  4  0
  2  9  1  0
  2 11  4  0
  2 25  4  0
  3 12  4  0
  3 14  1  0
  3 23  4  0
  4 13  4  0
  4 21  4  0
  4 24  1  0
  5  8  4  0
  5 23  4  0
  6 18  2  0
  7 15  4  0
  7 16  1  0
  7 27  4  0
  8 18  1  0
 10 18  1  0
 10 20  1  0
 11 15  4  0
 11 26  1  0
 13 22  4  0
 16 19  1  0
 16 20  2  0
 17 19  4  0
 17 21  4  0
 19 22  4  0
 20 28  1  0
 25 27  4  0
M  END
$$$$

 Created by Python create_sdf_string function

 28 30  0  0  0  0  0  0  0  0999 V2000
   11.4592   11.2893   18.7941 C   0  0  0  0  0  0  0  0  0  0  0  0
    3.4202    7.9009   20.3866 C   0  0  0  0  0  0  0  0  0  0  0  0
   13.5280   10.3522   19.3586 C   0  0  0  0  0  0  0  0  0  0  0  0
    9.6923    5.6468   22.7891 C   0  0  0  0  0  0  0  0  0  0  0  0
   11.7756   10.2554   20.8841 N   0  0  0  0  0  0  0  0  0  0  0  0
    8.9876   11.9370   19.8757 O   0  0  0  0  0  0  0  0  0  0  0  0
    6.0167    8.4478   21.1089 C   0  0  0  0  0  0  0  0  0  0  0  0
   11.0002   10.8890   20.0262 C   0  0  0  0  0  0  0  0  0  0  0  0
    2.1721    7.7393   20.0315 O   0  0  0  0  0  0  0  0  0  0  0  0
    9.1107   10.3880   21.3769 N   0  0  0  0  0  0  0  0  0  0  0  0
    3.9102    9.2008   20.3124 C   0  0  0  0  0  0  0  0  0  0  0  0
   12.7292   10.9960   18.4597 C   0  0  0  0  0  0  0  0  0  0  0  0
    9.3798    6.6793   23.6625 C   0  0  0  0  0  0  0  0  0  0  0  0
   14.7425   10.0739   19.0802 O   0  0  0  0  0  0  0  0  0  0  0  0
    5.1894    9.4673   20.7118 C   0  0  0  0  0  0  0  0  0  0  0  0
    7.3773    8.8224   21.4870 C   0  0  0  0  0  0  0  0  0  0  0  0
    8.4391    6.6439   21.0235 C   0  0  0  0  0  0  0  0  0  0  0  0
    9.6494   11.1353   20.4167 C   0  0  0  0  0  0  0  0  0  0  0  0
    8.1431    7.6829   21.9046 C   0  0  0  0  0  0  0  0  0  0  0  0
    7.7796   10.1314   21.5115 N   0  0  0  0  0  0  0  0  0  0  0  0
    9.2768    5.6183   21.4437 C   0  0  0  0  0  0  0  0  0  0  0  0
    8.6315    7.7322   23.1768 C   0  0  0  0  0  0  0  0  0  0  0  0
   13.0537    9.9821   20.5781 C   0  0  0  0  0  0  0  0  0  0  0  0
   10.3850    4.6575   23.2386 O   0  0  0  0  0  0  0  0  0  0  0  0
    4.2069    6.8450   20.7994 C   0  0  0  0  0  0  0  0  0  0  0  0
    3.0726   10.1043   19.8522 O   0  0  0  0  0  0  0  0  0  0  0  0
    5.5057    7.1196   21.1155 C   0  0  0  0  0  0  0  0  0  0  0  0
    7.0367   11.0229   21.9948 O   0  0  0  0  0  0  0  0  0  0  0  0
  1  8  4  0
  1 12  4  0
  2  9  1  0
  2 11  4  0
  2 25  4  0
  3 12  4  0
  3 14  1  0
  3 23  4  0
  4 13  4  0
  4 21  4  0
  4 24  1  0
  5  8  4  0
  5 23  4  0
  6 18  2  0
  7 15  4  0
  7 16  1  0
  7 27  4  0
  8 18  1  0
 10 18  1  0
 10 20  1  0
 11 15  4  0
 11 26  1  0
 13 22  4  0
 16 19  1  0
 16 20  2  0
 17 19  4  0
 17 21  4  0
 19 22  4  0
 20 28  1  0
 25 27  4  0
M  END
$$$$

 Created by Python create_sdf_string function

 28 30  0  0  0  0  0  0  0  0999 V2000
   11.4592   11.2893   18.7941 C   0  0  0  0  0  0  0  0  0  0  0  0
    3.4202    7.9009   20.3866 C   0  0  0  0  0  0  0  0  0  0  0  0
   13.5280   10.3522   19.3586 C   0  0  0  0  0  0  0  0  0  0  0  0
    9.6923    5.6468   22.7891 C   0  0  0  0  0  0  0  0  0  0  0  0
   11.7756   10.2554   20.8841 N   0  0  0  0  0  0  0  0  0  0  0  0
    8.9876   11.9370   19.8757 O   0  0  0  0  0  0  0  0  0  0  0  0
    6.0167    8.4478   21.1089 C   0  0  0  0  0  0  0  0  0  0  0  0
   11.0002   10.8890   20.0262 C   0  0  0  0  0  0  0  0  0  0  0  0
    2.1721    7.7393   20.0315 O   0  0  0  0  0  0  0  0  0  0  0  0
    9.1107   10.3880   21.3769 N   0  0  0  0  0  0  0  0  0  0  0  0
    3.9102    9.2008   20.3124 C   0  0  0  0  0  0  0  0  0  0  0  0
   12.7292   10.9960   18.4597 C   0  0  0  0  0  0  0  0  0  0  0  0
    9.3798    6.6793   23.6625 C   0  0  0  0  0  0  0  0  0  0  0  0
   14.7425   10.0739   19.0802 O   0  0  0  0  0  0  0  0  0  0  0  0
    5.1894    9.4673   20.7118 C   0  0  0  0  0  0  0  0  0  0  0  0
    7.3773    8.8224   21.4870 C   0  0  0  0  0  0  0  0  0  0  0  0
    8.4391    6.6439   21.0235 C   0  0  0  0  0  0  0  0  0  0  0  0
    9.6494   11.1353   20.4167 C   0  0  0  0  0  0  0  0  0  0  0  0
    8.1431    7.6829   21.9046 C   0  0  0  0  0  0  0  0  0  0  0  0
    7.7796   10.1314   21.5115 N   0  0  0  0  0  0  0  0  0  0  0  0
    9.2768    5.6183   21.4437 C   0  0  0  0  0  0  0  0  0  0  0  0
    8.6315    7.7322   23.1768 C   0  0  0  0  0  0  0  0  0  0  0  0
   13.0537    9.9821   20.5781 C   0  0  0  0  0  0  0  0  0  0  0  0
   10.3850    4.6575   23.2386 O   0  0  0  0  0  0  0  0  0  0  0  0
    4.2069    6.8450   20.7994 C   0  0  0  0  0  0  0  0  0  0  0  0
    3.0726   10.1043   19.8522 O   0  0  0  0  0  0  0  0  0  0  0  0
    5.5057    7.1196   21.1155 C   0  0  0  0  0  0  0  0  0  0  0  0
    7.0367   11.0229   21.9948 O   0  0  0  0  0  0  0  0  0  0  0  0
  1  8  4  0
  1 12  4  0
  2  9  1  0
  2 11  4  0
  2 25  4  0
  3 12  4  0
  3 14  1  0
  3 23  4  0
  4 13  4  0
  4 21  4  0
  4 24  1  0
  5  8  4  0
  5 23  4  0
  6 18  2  0
  7 15  4  0
  7 16  1  0
  7 27  4  0
  8 18  1  0
 10 18  1  0
 10 20  1  0
 11 15  4  0
 11 26  1  0
 13 22  4  0
 16 19  1  0
 16 20  2  0
 17 19  4  0
 17 21  4  0
 19 22  4  0
 20 28  1  0
 25 27  4  0
M  END
$$$$

 Created by Python create_sdf_string function

 28 30  0  0  0  0  0  0  0  0999 V2000
   11.4592   11.2893   18.7941 C   0  0  0  0  0  0  0  0  0  0  0  0
    3.4202    7.9009   20.3866 C   0  0  0  0  0  0  0  0  0  0  0  0
   13.5280   10.3522   19.3586 C   0  0  0  0  0  0  0  0  0  0  0  0
    9.6923    5.6468   22.7891 C   0  0  0  0  0  0  0  0  0  0  0  0
   11.7756   10.2554   20.8841 N   0  0  0  0  0  0  0  0  0  0  0  0
    8.9876   11.9370   19.8757 O   0  0  0  0  0  0  0  0  0  0  0  0
    6.0167    8.4478   21.1089 C   0  0  0  0  0  0  0  0  0  0  0  0
   11.0002   10.8890   20.0262 C   0  0  0  0  0  0  0  0  0  0  0  0
    2.1721    7.7393   20.0315 O   0  0  0  0  0  0  0  0  0  0  0  0
    9.1107   10.3880   21.3769 N   0  0  0  0  0  0  0  0  0  0  0  0
    3.9102    9.2008   20.3124 C   0  0  0  0  0  0  0  0  0  0  0  0
   12.7292   10.9960   18.4597 C   0  0  0  0  0  0  0  0  0  0  0  0
    9.3798    6.6793   23.6625 C   0  0  0  0  0  0  0  0  0  0  0  0
   14.7425   10.0739   19.0802 O   0  0  0  0  0  0  0  0  0  0  0  0
    5.1894    9.4673   20.7118 C   0  0  0  0  0  0  0  0  0  0  0  0
    7.3773    8.8224   21.4870 C   0  0  0  0  0  0  0  0  0  0  0  0
    8.4391    6.6439   21.0235 C   0  0  0  0  0  0  0  0  0  0  0  0
    9.6494   11.1353   20.4167 C   0  0  0  0  0  0  0  0  0  0  0  0
    8.1431    7.6829   21.9046 C   0  0  0  0  0  0  0  0  0  0  0  0
    7.7796   10.1314   21.5115 N   0  0  0  0  0  0  0  0  0  0  0  0
    9.2768    5.6183   21.4437 C   0  0  0  0  0  0  0  0  0  0  0  0
    8.6315    7.7322   23.1768 C   0  0  0  0  0  0  0  0  0  0  0  0
   13.0537    9.9821   20.5781 C   0  0  0  0  0  0  0  0  0  0  0  0
   10.3850    4.6575   23.2386 O   0  0  0  0  0  0  0  0  0  0  0  0
    4.2069    6.8450   20.7994 C   0  0  0  0  0  0  0  0  0  0  0  0
    3.0726   10.1043   19.8522 O   0  0  0  0  0  0  0  0  0  0  0  0
    5.5057    7.1196   21.1155 C   0  0  0  0  0  0  0  0  0  0  0  0
    7.0367   11.0229   21.9948 O   0  0  0  0  0  0  0  0  0  0  0  0
  1  8  4  0
  1 12  4  0
  2  9  1  0
  2 11  4  0
  2 25  4  0
  3 12  4  0
  3 14  1  0
  3 23  4  0
  4 13  4  0
  4 21  4  0
  4 24  1  0
  5  8  4  0
  5 23  4  0
  6 18  2  0
  7 15  4  0
  7 16  1  0
  7 27  4  0
  8 18  1  0
 10 18  1  0
 10 20  1  0
 11 15  4  0
 11 26  1  0
 13 22  4  0
 16 19  1  0
 16 20  2  0
 17 19  4  0
 17 21  4  0
 19 22  4  0
 20 28  1  0
 25 27  4  0
M  END
$$$$

 Created by Python create_sdf_string function

 28 30  0  0  0  0  0  0  0  0999 V2000
   11.4592   11.2893   18.7941 C   0  0  0  0  0  0  0  0  0  0  0  0
    3.4202    7.9009   20.3866 C   0  0  0  0  0  0  0  0  0  0  0  0
   13.5280   10.3522   19.3586 C   0  0  0  0  0  0  0  0  0  0  0  0
    9.6923    5.6468   22.7891 C   0  0  0  0  0  0  0  0  0  0  0  0
   11.7756   10.2554   20.8841 N   0  0  0  0  0  0  0  0  0  0  0  0
    8.9876   11.9370   19.8757 O   0  0  0  0  0  0  0  0  0  0  0  0
    6.0167    8.4478   21.1089 C   0  0  0  0  0  0  0  0  0  0  0  0
   11.0002   10.8890   20.0262 C   0  0  0  0  0  0  0  0  0  0  0  0
    2.1721    7.7393   20.0315 O   0  0  0  0  0  0  0  0  0  0  0  0
    9.1107   10.3880   21.3769 N   0  0  0  0  0  0  0  0  0  0  0  0
    3.9102    9.2008   20.3124 C   0  0  0  0  0  0  0  0  0  0  0  0
   12.7292   10.9960   18.4597 C   0  0  0  0  0  0  0  0  0  0  0  0
    9.3798    6.6793   23.6625 C   0  0  0  0  0  0  0  0  0  0  0  0
   14.7425   10.0739   19.0802 O   0  0  0  0  0  0  0  0  0  0  0  0
    5.1894    9.4673   20.7118 C   0  0  0  0  0  0  0  0  0  0  0  0
    7.3773    8.8224   21.4870 C   0  0  0  0  0  0  0  0  0  0  0  0
    8.4391    6.6439   21.0235 C   0  0  0  0  0  0  0  0  0  0  0  0
    9.6494   11.1353   20.4167 C   0  0  0  0  0  0  0  0  0  0  0  0
    8.1431    7.6829   21.9046 C   0  0  0  0  0  0  0  0  0  0  0  0
    7.7796   10.1314   21.5115 N   0  0  0  0  0  0  0  0  0  0  0  0
    9.2768    5.6183   21.4437 C   0  0  0  0  0  0  0  0  0  0  0  0
    8.6315    7.7322   23.1768 C   0  0  0  0  0  0  0  0  0  0  0  0
   13.0537    9.9821   20.5781 C   0  0  0  0  0  0  0  0  0  0  0  0
   10.3850    4.6575   23.2386 O   0  0  0  0  0  0  0  0  0  0  0  0
    4.2069    6.8450   20.7994 C   0  0  0  0  0  0  0  0  0  0  0  0
    3.0726   10.1043   19.8522 O   0  0  0  0  0  0  0  0  0  0  0  0
    5.5057    7.1196   21.1155 C   0  0  0  0  0  0  0  0  0  0  0  0
    7.0367   11.0229   21.9948 O   0  0  0  0  0  0  0  0  0  0  0  0
  1  8  4  0
  1 12  4  0
  2  9  1  0
  2 11  4  0
  2 25  4  0
  3 12  4  0
  3 14  1  0
  3 23  4  0
  4 13  4  0
  4 21  4  0
  4 24  1  0
  5  8  4  0
  5 23  4  0
  6 18  2  0
  7 15  4  0
  7 16  1  0
  7 27  4  0
  8 18  1  0
 10 18  1  0
 10 20  1  0
 11 15  4  0
 11 26  1  0
 13 22  4  0
 16 19  1  0
 16 20  2  0
 17 19  4  0
 17 21  4  0
 19 22  4  0
 20 28  1  0
 25 27  4  0
M  END
$$$$

 Created by Python create_sdf_string function

 28 30  0  0  0  0  0  0  0  0999 V2000
   11.4592   11.2893   18.7941 C   0  0  0  0  0  0  0  0  0  0  0  0
    3.4202    7.9009   20.3866 C   0  0  0  0  0  0  0  0  0  0  0  0
   13.5280   10.3522   19.3586 C   0  0  0  0  0  0  0  0  0  0  0  0
    9.6923    5.6468   22.7891 C   0  0  0  0  0  0  0  0  0  0  0  0
   11.7756   10.2554   20.8841 N   0  0  0  0  0  0  0  0  0  0  0  0
    8.9876   11.9370   19.8757 O   0  0  0  0  0  0  0  0  0  0  0  0
    6.0167    8.4478   21.1089 C   0  0  0  0  0  0  0  0  0  0  0  0
   11.0002   10.8890   20.0262 C   0  0  0  0  0  0  0  0  0  0  0  0
    2.1721    7.7393   20.0315 O   0  0  0  0  0  0  0  0  0  0  0  0
    9.1107   10.3880   21.3769 N   0  0  0  0  0  0  0  0  0  0  0  0
    3.9102    9.2008   20.3124 C   0  0  0  0  0  0  0  0  0  0  0  0
   12.7292   10.9960   18.4597 C   0  0  0  0  0  0  0  0  0  0  0  0
    9.3798    6.6793   23.6625 C   0  0  0  0  0  0  0  0  0  0  0  0
   14.7425   10.0739   19.0802 O   0  0  0  0  0  0  0  0  0  0  0  0
    5.1894    9.4673   20.7118 C   0  0  0  0  0  0  0  0  0  0  0  0
    7.3773    8.8224   21.4870 C   0  0  0  0  0  0  0  0  0  0  0  0
    8.4391    6.6439   21.0235 C   0  0  0  0  0  0  0  0  0  0  0  0
    9.6494   11.1353   20.4167 C   0  0  0  0  0  0  0  0  0  0  0  0
    8.1431    7.6829   21.9046 C   0  0  0  0  0  0  0  0  0  0  0  0
    7.7796   10.1314   21.5115 N   0  0  0  0  0  0  0  0  0  0  0  0
    9.2768    5.6183   21.4437 C   0  0  0  0  0  0  0  0  0  0  0  0
    8.6315    7.7322   23.1768 C   0  0  0  0  0  0  0  0  0  0  0  0
   13.0537    9.9821   20.5781 C   0  0  0  0  0  0  0  0  0  0  0  0
   10.3850    4.6575   23.2386 O   0  0  0  0  0  0  0  0  0  0  0  0
    4.2069    6.8450   20.7994 C   0  0  0  0  0  0  0  0  0  0  0  0
    3.0726   10.1043   19.8522 O   0  0  0  0  0  0  0  0  0  0  0  0
    5.5057    7.1196   21.1155 C   0  0  0  0  0  0  0  0  0  0  0  0
    7.0367   11.0229   21.9948 O   0  0  0  0  0  0  0  0  0  0  0  0
  1  8  4  0
  1 12  4  0
  2  9  1  0
  2 11  4  0
  2 25  4  0
  3 12  4  0
  3 14  1  0
  3 23  4  0
  4 13  4  0
  4 21  4  0
  4 24  1  0
  5  8  4  0
  5 23  4  0
  6 18  2  0
  7 15  4  0
  7 16  1  0
  7 27  4  0
  8 18  1  0
 10 18  1  0
 10 20  1  0
 11 15  4  0
 11 26  1  0
 13 22  4  0
 16 19  1  0
 16 20  2  0
 17 19  4  0
 17 21  4  0
 19 22  4  0
 20 28  1  0
 25 27  4  0
M  END
$$$$

 Created by Python create_sdf_string function

 28 30  0  0  0  0  0  0  0  0999 V2000
   11.4592   11.2893   18.7941 C   0  0  0  0  0  0  0  0  0  0  0  0
    3.4202    7.9009   20.3866 C   0  0  0  0  0  0  0  0  0  0  0  0
   13.5280   10.3522   19.3586 C   0  0  0  0  0  0  0  0  0  0  0  0
    9.6923    5.6468   22.7891 C   0  0  0  0  0  0  0  0  0  0  0  0
   11.7756   10.2554   20.8841 N   0  0  0  0  0  0  0  0  0  0  0  0
    8.9876   11.9370   19.8757 O   0  0  0  0  0  0  0  0  0  0  0  0
    6.0167    8.4478   21.1089 C   0  0  0  0  0  0  0  0  0  0  0  0
   11.0002   10.8890   20.0262 C   0  0  0  0  0  0  0  0  0  0  0  0
    2.1721    7.7393   20.0315 O   0  0  0  0  0  0  0  0  0  0  0  0
    9.1107   10.3880   21.3769 N   0  0  0  0  0  0  0  0  0  0  0  0
    3.9102    9.2008   20.3124 C   0  0  0  0  0  0  0  0  0  0  0  0
   12.7292   10.9960   18.4597 C   0  0  0  0  0  0  0  0  0  0  0  0
    9.3798    6.6793   23.6625 C   0  0  0  0  0  0  0  0  0  0  0  0
   14.7425   10.0739   19.0802 O   0  0  0  0  0  0  0  0  0  0  0  0
    5.1894    9.4673   20.7118 C   0  0  0  0  0  0  0  0  0  0  0  0
    7.3773    8.8224   21.4870 C   0  0  0  0  0  0  0  0  0  0  0  0
    8.4391    6.6439   21.0235 C   0  0  0  0  0  0  0  0  0  0  0  0
    9.6494   11.1353   20.4167 C   0  0  0  0  0  0  0  0  0  0  0  0
    8.1431    7.6829   21.9046 C   0  0  0  0  0  0  0  0  0  0  0  0
    7.7796   10.1314   21.5115 N   0  0  0  0  0  0  0  0  0  0  0  0
    9.2768    5.6183   21.4437 C   0  0  0  0  0  0  0  0  0  0  0  0
    8.6315    7.7322   23.1768 C   0  0  0  0  0  0  0  0  0  0  0  0
   13.0537    9.9821   20.5781 C   0  0  0  0  0  0  0  0  0  0  0  0
   10.3850    4.6575   23.2386 O   0  0  0  0  0  0  0  0  0  0  0  0
    4.2069    6.8450   20.7994 C   0  0  0  0  0  0  0  0  0  0  0  0
    3.0726   10.1043   19.8522 O   0  0  0  0  0  0  0  0  0  0  0  0
    5.5057    7.1196   21.1155 C   0  0  0  0  0  0  0  0  0  0  0  0
    7.0367   11.0229   21.9948 O   0  0  0  0  0  0  0  0  0  0  0  0
  1  8  4  0
  1 12  4  0
  2  9  1  0
  2 11  4  0
  2 25  4  0
  3 12  4  0
  3 14  1  0
  3 23  4  0
  4 13  4  0
  4 21  4  0
  4 24  1  0
  5  8  4  0
  5 23  4  0
  6 18  2  0
  7 15  4  0
  7 16  1  0
  7 27  4  0
  8 18  1  0
 10 18  1  0
 10 20  1  0
 11 15  4  0
 11 26  1  0
 13 22  4  0
 16 19  1  0
 16 20  2  0
 17 19  4  0
 17 21  4  0
 19 22  4  0
 20 28  1  0
 25 27  4  0
M  END
$$$$

 Created by Python create_sdf_string function

 28 30  0  0  0  0  0  0  0  0999 V2000
   11.4592   11.2893   18.7941 C   0  0  0  0  0  0  0  0  0  0  0  0
    3.4202    7.9009   20.3866 C   0  0  0  0  0  0  0  0  0  0  0  0
   13.5280   10.3522   19.3586 C   0  0  0  0  0  0  0  0  0  0  0  0
    9.6923    5.6468   22.7891 C   0  0  0  0  0  0  0  0  0  0  0  0
   11.7756   10.2554   20.8841 N   0  0  0  0  0  0  0  0  0  0  0  0
    8.9876   11.9370   19.8757 O   0  0  0  0  0  0  0  0  0  0  0  0
    6.0167    8.4478   21.1089 C   0  0  0  0  0  0  0  0  0  0  0  0
   11.0002   10.8890   20.0262 C   0  0  0  0  0  0  0  0  0  0  0  0
    2.1721    7.7393   20.0315 O   0  0  0  0  0  0  0  0  0  0  0  0
    9.1107   10.3880   21.3769 N   0  0  0  0  0  0  0  0  0  0  0  0
    3.9102    9.2008   20.3124 C   0  0  0  0  0  0  0  0  0  0  0  0
   12.7292   10.9960   18.4597 C   0  0  0  0  0  0  0  0  0  0  0  0
    9.3798    6.6793   23.6625 C   0  0  0  0  0  0  0  0  0  0  0  0
   14.7425   10.0739   19.0802 O   0  0  0  0  0  0  0  0  0  0  0  0
    5.1894    9.4673   20.7118 C   0  0  0  0  0  0  0  0  0  0  0  0
    7.3773    8.8224   21.4870 C   0  0  0  0  0  0  0  0  0  0  0  0
    8.4391    6.6439   21.0235 C   0  0  0  0  0  0  0  0  0  0  0  0
    9.6494   11.1353   20.4167 C   0  0  0  0  0  0  0  0  0  0  0  0
    8.1431    7.6829   21.9046 C   0  0  0  0  0  0  0  0  0  0  0  0
    7.7796   10.1314   21.5115 N   0  0  0  0  0  0  0  0  0  0  0  0
    9.2768    5.6183   21.4437 C   0  0  0  0  0  0  0  0  0  0  0  0
    8.6315    7.7322   23.1768 C   0  0  0  0  0  0  0  0  0  0  0  0
   13.0537    9.9821   20.5781 C   0  0  0  0  0  0  0  0  0  0  0  0
   10.3850    4.6575   23.2386 O   0  0  0  0  0  0  0  0  0  0  0  0
    4.2069    6.8450   20.7994 C   0  0  0  0  0  0  0  0  0  0  0  0
    3.0726   10.1043   19.8522 O   0  0  0  0  0  0  0  0  0  0  0  0
    5.5057    7.1196   21.1155 C   0  0  0  0  0  0  0  0  0  0  0  0
    7.0367   11.0229   21.9948 O   0  0  0  0  0  0  0  0  0  0  0  0
  1  8  4  0
  1 12  4  0
  2  9  1  0
  2 11  4  0
  2 25  4  0
  3 12  4  0
  3 14  1  0
  3 23  4  0
  4 13  4  0
  4 21  4  0
  4 24  1  0
  5  8  4  0
  5 23  4  0
  6 18  2  0
  7 15  4  0
  7 16  1  0
  7 27  4  0
  8 18  1  0
 10 18  1  0
 10 20  1  0
 11 15  4  0
 11 26  1  0
 13 22  4  0
 16 19  1  0
 16 20  2  0
 17 19  4  0
 17 21  4  0
 19 22  4  0
 20 28  1  0
 25 27  4  0
M  END
$$$$

 Created by Python create_sdf_string function

 28 30  0  0  0  0  0  0  0  0999 V2000
   11.4592   11.2893   18.7941 C   0  0  0  0  0  0  0  0  0  0  0  0
    3.4202    7.9009   20.3866 C   0  0  0  0  0  0  0  0  0  0  0  0
   13.5280   10.3522   19.3586 C   0  0  0  0  0  0  0  0  0  0  0  0
    9.6923    5.6468   22.7891 C   0  0  0  0  0  0  0  0  0  0  0  0
   11.7756   10.2554   20.8841 N   0  0  0  0  0  0  0  0  0  0  0  0
    8.9876   11.9370   19.8757 O   0  0  0  0  0  0  0  0  0  0  0  0
    6.0167    8.4478   21.1089 C   0  0  0  0  0  0  0  0  0  0  0  0
   11.0002   10.8890   20.0262 C   0  0  0  0  0  0  0  0  0  0  0  0
    2.1721    7.7393   20.0315 O   0  0  0  0  0  0  0  0  0  0  0  0
    9.1107   10.3880   21.3769 N   0  0  0  0  0  0  0  0  0  0  0  0
    3.9102    9.2008   20.3124 C   0  0  0  0  0  0  0  0  0  0  0  0
   12.7292   10.9960   18.4597 C   0  0  0  0  0  0  0  0  0  0  0  0
    9.3798    6.6793   23.6625 C   0  0  0  0  0  0  0  0  0  0  0  0
   14.7425   10.0739   19.0802 O   0  0  0  0  0  0  0  0  0  0  0  0
    5.1894    9.4673   20.7118 C   0  0  0  0  0  0  0  0  0  0  0  0
    7.3773    8.8224   21.4870 C   0  0  0  0  0  0  0  0  0  0  0  0
    8.4391    6.6439   21.0235 C   0  0  0  0  0  0  0  0  0  0  0  0
    9.6494   11.1353   20.4167 C   0  0  0  0  0  0  0  0  0  0  0  0
    8.1431    7.6829   21.9046 C   0  0  0  0  0  0  0  0  0  0  0  0
    7.7796   10.1314   21.5115 N   0  0  0  0  0  0  0  0  0  0  0  0
    9.2768    5.6183   21.4437 C   0  0  0  0  0  0  0  0  0  0  0  0
    8.6315    7.7322   23.1768 C   0  0  0  0  0  0  0  0  0  0  0  0
   13.0537    9.9821   20.5781 C   0  0  0  0  0  0  0  0  0  0  0  0
   10.3850    4.6575   23.2386 O   0  0  0  0  0  0  0  0  0  0  0  0
    4.2069    6.8450   20.7994 C   0  0  0  0  0  0  0  0  0  0  0  0
    3.0726   10.1043   19.8522 O   0  0  0  0  0  0  0  0  0  0  0  0
    5.5057    7.1196   21.1155 C   0  0  0  0  0  0  0  0  0  0  0  0
    7.0367   11.0229   21.9948 O   0  0  0  0  0  0  0  0  0  0  0  0
  1  8  4  0
  1 12  4  0
  2  9  1  0
  2 11  4  0
  2 25  4  0
  3 12  4  0
  3 14  1  0
  3 23  4  0
  4 13  4  0
  4 21  4  0
  4 24  1  0
  5  8  4  0
  5 23  4  0
  6 18  2  0
  7 15  4  0
  7 16  1  0
  7 27  4  0
  8 18  1  0
 10 18  1  0
 10 20  1  0
 11 15  4  0
 11 26  1  0
 13 22  4  0
 16 19  1  0
 16 20  2  0
 17 19  4  0
 17 21  4  0
 19 22  4  0
 20 28  1  0
 25 27  4  0
M  END
$$$$

 Created by Python create_sdf_string function

 28 30  0  0  0  0  0  0  0  0999 V2000
   11.4592   11.2893   18.7941 C   0  0  0  0  0  0  0  0  0  0  0  0
    3.4202    7.9009   20.3866 C   0  0  0  0  0  0  0  0  0  0  0  0
   13.5280   10.3522   19.3586 C   0  0  0  0  0  0  0  0  0  0  0  0
    9.6923    5.6468   22.7891 C   0  0  0  0  0  0  0  0  0  0  0  0
   11.7756   10.2554   20.8841 N   0  0  0  0  0  0  0  0  0  0  0  0
    8.9876   11.9370   19.8757 O   0  0  0  0  0  0  0  0  0  0  0  0
    6.0167    8.4478   21.1089 C   0  0  0  0  0  0  0  0  0  0  0  0
   11.0002   10.8890   20.0262 C   0  0  0  0  0  0  0  0  0  0  0  0
    2.1721    7.7393   20.0315 O   0  0  0  0  0  0  0  0  0  0  0  0
    9.1107   10.3880   21.3769 N   0  0  0  0  0  0  0  0  0  0  0  0
    3.9102    9.2008   20.3124 C   0  0  0  0  0  0  0  0  0  0  0  0
   12.7292   10.9960   18.4597 C   0  0  0  0  0  0  0  0  0  0  0  0
    9.3798    6.6793   23.6625 C   0  0  0  0  0  0  0  0  0  0  0  0
   14.7425   10.0739   19.0802 O   0  0  0  0  0  0  0  0  0  0  0  0
    5.1894    9.4673   20.7118 C   0  0  0  0  0  0  0  0  0  0  0  0
    7.3773    8.8224   21.4870 C   0  0  0  0  0  0  0  0  0  0  0  0
    8.4391    6.6439   21.0235 C   0  0  0  0  0  0  0  0  0  0  0  0
    9.6494   11.1353   20.4167 C   0  0  0  0  0  0  0  0  0  0  0  0
    8.1431    7.6829   21.9046 C   0  0  0  0  0  0  0  0  0  0  0  0
    7.7796   10.1314   21.5115 N   0  0  0  0  0  0  0  0  0  0  0  0
    9.2768    5.6183   21.4437 C   0  0  0  0  0  0  0  0  0  0  0  0
    8.6315    7.7322   23.1768 C   0  0  0  0  0  0  0  0  0  0  0  0
   13.0537    9.9821   20.5781 C   0  0  0  0  0  0  0  0  0  0  0  0
   10.3850    4.6575   23.2386 O   0  0  0  0  0  0  0  0  0  0  0  0
    4.2069    6.8450   20.7994 C   0  0  0  0  0  0  0  0  0  0  0  0
    3.0726   10.1043   19.8522 O   0  0  0  0  0  0  0  0  0  0  0  0
    5.5057    7.1196   21.1155 C   0  0  0  0  0  0  0  0  0  0  0  0
    7.0367   11.0229   21.9948 O   0  0  0  0  0  0  0  0  0  0  0  0
  1  8  4  0
  1 12  4  0
  2  9  1  0
  2 11  4  0
  2 25  4  0
  3 12  4  0
  3 14  1  0
  3 23  4  0
  4 13  4  0
  4 21  4  0
  4 24  1  0
  5  8  4  0
  5 23  4  0
  6 18  2  0
  7 15  4  0
  7 16  1  0
  7 27  4  0
  8 18  1  0
 10 18  1  0
 10 20  1  0
 11 15  4  0
 11 26  1  0
 13 22  4  0
 16 19  1  0
 16 20  2  0
 17 19  4  0
 17 21  4  0
 19 22  4  0
 20 28  1  0
 25 27  4  0
M  END
$$$$

 Created by Python create_sdf_string function

 28 30  0  0  0  0  0  0  0  0999 V2000
   11.4592   11.2893   18.7941 C   0  0  0  0  0  0  0  0  0  0  0  0
    3.4202    7.9009   20.3866 C   0  0  0  0  0  0  0  0  0  0  0  0
   13.5280   10.3522   19.3586 C   0  0  0  0  0  0  0  0  0  0  0  0
    9.6923    5.6468   22.7891 C   0  0  0  0  0  0  0  0  0  0  0  0
   11.7756   10.2554   20.8841 N   0  0  0  0  0  0  0  0  0  0  0  0
    8.9876   11.9370   19.8757 O   0  0  0  0  0  0  0  0  0  0  0  0
    6.0167    8.4478   21.1089 C   0  0  0  0  0  0  0  0  0  0  0  0
   11.0002   10.8890   20.0262 C   0  0  0  0  0  0  0  0  0  0  0  0
    2.1721    7.7393   20.0315 O   0  0  0  0  0  0  0  0  0  0  0  0
    9.1107   10.3880   21.3769 N   0  0  0  0  0  0  0  0  0  0  0  0
    3.9102    9.2008   20.3124 C   0  0  0  0  0  0  0  0  0  0  0  0
   12.7292   10.9960   18.4597 C   0  0  0  0  0  0  0  0  0  0  0  0
    9.3798    6.6793   23.6625 C   0  0  0  0  0  0  0  0  0  0  0  0
   14.7425   10.0739   19.0802 O   0  0  0  0  0  0  0  0  0  0  0  0
    5.1894    9.4673   20.7118 C   0  0  0  0  0  0  0  0  0  0  0  0
    7.3773    8.8224   21.4870 C   0  0  0  0  0  0  0  0  0  0  0  0
    8.4391    6.6439   21.0235 C   0  0  0  0  0  0  0  0  0  0  0  0
    9.6494   11.1353   20.4167 C   0  0  0  0  0  0  0  0  0  0  0  0
    8.1431    7.6829   21.9046 C   0  0  0  0  0  0  0  0  0  0  0  0
    7.7796   10.1314   21.5115 N   0  0  0  0  0  0  0  0  0  0  0  0
    9.2768    5.6183   21.4437 C   0  0  0  0  0  0  0  0  0  0  0  0
    8.6315    7.7322   23.1768 C   0  0  0  0  0  0  0  0  0  0  0  0
   13.0537    9.9821   20.5781 C   0  0  0  0  0  0  0  0  0  0  0  0
   10.3850    4.6575   23.2386 O   0  0  0  0  0  0  0  0  0  0  0  0
    4.2069    6.8450   20.7994 C   0  0  0  0  0  0  0  0  0  0  0  0
    3.0726   10.1043   19.8522 O   0  0  0  0  0  0  0  0  0  0  0  0
    5.5057    7.1196   21.1155 C   0  0  0  0  0  0  0  0  0  0  0  0
    7.0367   11.0229   21.9948 O   0  0  0  0  0  0  0  0  0  0  0  0
  1  8  4  0
  1 12  4  0
  2  9  1  0
  2 11  4  0
  2 25  4  0
  3 12  4  0
  3 14  1  0
  3 23  4  0
  4 13  4  0
  4 21  4  0
  4 24  1  0
  5  8  4  0
  5 23  4  0
  6 18  2  0
  7 15  4  0
  7 16  1  0
  7 27  4  0
  8 18  1  0
 10 18  1  0
 10 20  1  0
 11 15  4  0
 11 26  1  0
 13 22  4  0
 16 19  1  0
 16 20  2  0
 17 19  4  0
 17 21  4  0
 19 22  4  0
 20 28  1  0
 25 27  4  0
M  END
$$$$

 Created by Python create_sdf_string function

 28 30  0  0  0  0  0  0  0  0999 V2000
   11.4592   11.2893   18.7941 C   0  0  0  0  0  0  0  0  0  0  0  0
    3.4202    7.9009   20.3866 C   0  0  0  0  0  0  0  0  0  0  0  0
   13.5280   10.3522   19.3586 C   0  0  0  0  0  0  0  0  0  0  0  0
    9.6923    5.6468   22.7891 C   0  0  0  0  0  0  0  0  0  0  0  0
   11.7756   10.2554   20.8841 N   0  0  0  0  0  0  0  0  0  0  0  0
    8.9876   11.9370   19.8757 O   0  0  0  0  0  0  0  0  0  0  0  0
    6.0167    8.4478   21.1089 C   0  0  0  0  0  0  0  0  0  0  0  0
   11.0002   10.8890   20.0262 C   0  0  0  0  0  0  0  0  0  0  0  0
    2.1721    7.7393   20.0315 O   0  0  0  0  0  0  0  0  0  0  0  0
    9.1107   10.3880   21.3769 N   0  0  0  0  0  0  0  0  0  0  0  0
    3.9102    9.2008   20.3124 C   0  0  0  0  0  0  0  0  0  0  0  0
   12.7292   10.9960   18.4597 C   0  0  0  0  0  0  0  0  0  0  0  0
    9.3798    6.6793   23.6625 C   0  0  0  0  0  0  0  0  0  0  0  0
   14.7425   10.0739   19.0802 O   0  0  0  0  0  0  0  0  0  0  0  0
    5.1894    9.4673   20.7118 C   0  0  0  0  0  0  0  0  0  0  0  0
    7.3773    8.8224   21.4870 C   0  0  0  0  0  0  0  0  0  0  0  0
    8.4391    6.6439   21.0235 C   0  0  0  0  0  0  0  0  0  0  0  0
    9.6494   11.1353   20.4167 C   0  0  0  0  0  0  0  0  0  0  0  0
    8.1431    7.6829   21.9046 C   0  0  0  0  0  0  0  0  0  0  0  0
    7.7796   10.1314   21.5115 N   0  0  0  0  0  0  0  0  0  0  0  0
    9.2768    5.6183   21.4437 C   0  0  0  0  0  0  0  0  0  0  0  0
    8.6315    7.7322   23.1768 C   0  0  0  0  0  0  0  0  0  0  0  0
   13.0537    9.9821   20.5781 C   0  0  0  0  0  0  0  0  0  0  0  0
   10.3850    4.6575   23.2386 O   0  0  0  0  0  0  0  0  0  0  0  0
    4.2069    6.8450   20.7994 C   0  0  0  0  0  0  0  0  0  0  0  0
    3.0726   10.1043   19.8522 O   0  0  0  0  0  0  0  0  0  0  0  0
    5.5057    7.1196   21.1155 C   0  0  0  0  0  0  0  0  0  0  0  0
    7.0367   11.0229   21.9948 O   0  0  0  0  0  0  0  0  0  0  0  0
  1  8  4  0
  1 12  4  0
  2  9  1  0
  2 11  4  0
  2 25  4  0
  3 12  4  0
  3 14  1  0
  3 23  4  0
  4 13  4  0
  4 21  4  0
  4 24  1  0
  5  8  4  0
  5 23  4  0
  6 18  2  0
  7 15  4  0
  7 16  1  0
  7 27  4  0
  8 18  1  0
 10 18  1  0
 10 20  1  0
 11 15  4  0
 11 26  1  0
 13 22  4  0
 16 19  1  0
 16 20  2  0
 17 19  4  0
 17 21  4  0
 19 22  4  0
 20 28  1  0
 25 27  4  0
M  END
$$$$

 Created by Python create_sdf_string function

 28 30  0  0  0  0  0  0  0  0999 V2000
   11.4592   11.2893   18.7941 C   0  0  0  0  0  0  0  0  0  0  0  0
    3.4202    7.9009   20.3866 C   0  0  0  0  0  0  0  0  0  0  0  0
   13.5280   10.3522   19.3586 C   0  0  0  0  0  0  0  0  0  0  0  0
    9.6923    5.6468   22.7891 C   0  0  0  0  0  0  0  0  0  0  0  0
   11.7756   10.2554   20.8841 N   0  0  0  0  0  0  0  0  0  0  0  0
    8.9876   11.9370   19.8757 O   0  0  0  0  0  0  0  0  0  0  0  0
    6.0167    8.4478   21.1089 C   0  0  0  0  0  0  0  0  0  0  0  0
   11.0002   10.8890   20.0262 C   0  0  0  0  0  0  0  0  0  0  0  0
    2.1721    7.7393   20.0315 O   0  0  0  0  0  0  0  0  0  0  0  0
    9.1107   10.3880   21.3769 N   0  0  0  0  0  0  0  0  0  0  0  0
    3.9102    9.2008   20.3124 C   0  0  0  0  0  0  0  0  0  0  0  0
   12.7292   10.9960   18.4597 C   0  0  0  0  0  0  0  0  0  0  0  0
    9.3798    6.6793   23.6625 C   0  0  0  0  0  0  0  0  0  0  0  0
   14.7425   10.0739   19.0802 O   0  0  0  0  0  0  0  0  0  0  0  0
    5.1894    9.4673   20.7118 C   0  0  0  0  0  0  0  0  0  0  0  0
    7.3773    8.8224   21.4870 C   0  0  0  0  0  0  0  0  0  0  0  0
    8.4391    6.6439   21.0235 C   0  0  0  0  0  0  0  0  0  0  0  0
    9.6494   11.1353   20.4167 C   0  0  0  0  0  0  0  0  0  0  0  0
    8.1431    7.6829   21.9046 C   0  0  0  0  0  0  0  0  0  0  0  0
    7.7796   10.1314   21.5115 N   0  0  0  0  0  0  0  0  0  0  0  0
    9.2768    5.6183   21.4437 C   0  0  0  0  0  0  0  0  0  0  0  0
    8.6315    7.7322   23.1768 C   0  0  0  0  0  0  0  0  0  0  0  0
   13.0537    9.9821   20.5781 C   0  0  0  0  0  0  0  0  0  0  0  0
   10.3850    4.6575   23.2386 O   0  0  0  0  0  0  0  0  0  0  0  0
    4.2069    6.8450   20.7994 C   0  0  0  0  0  0  0  0  0  0  0  0
    3.0726   10.1043   19.8522 O   0  0  0  0  0  0  0  0  0  0  0  0
    5.5057    7.1196   21.1155 C   0  0  0  0  0  0  0  0  0  0  0  0
    7.0367   11.0229   21.9948 O   0  0  0  0  0  0  0  0  0  0  0  0
  1  8  4  0
  1 12  4  0
  2  9  1  0
  2 11  4  0
  2 25  4  0
  3 12  4  0
  3 14  1  0
  3 23  4  0
  4 13  4  0
  4 21  4  0
  4 24  1  0
  5  8  4  0
  5 23  4  0
  6 18  2  0
  7 15  4  0
  7 16  1  0
  7 27  4  0
  8 18  1  0
 10 18  1  0
 10 20  1  0
 11 15  4  0
 11 26  1  0
 13 22  4  0
 16 19  1  0
 16 20  2  0
 17 19  4  0
 17 21  4  0
 19 22  4  0
 20 28  1  0
 25 27  4  0
M  END
$$$$

 Created by Python create_sdf_string function

 28 30  0  0  0  0  0  0  0  0999 V2000
   11.4592   11.2893   18.7941 C   0  0  0  0  0  0  0  0  0  0  0  0
    3.4202    7.9009   20.3866 C   0  0  0  0  0  0  0  0  0  0  0  0
   13.5280   10.3522   19.3586 C   0  0  0  0  0  0  0  0  0  0  0  0
    9.6923    5.6468   22.7891 C   0  0  0  0  0  0  0  0  0  0  0  0
   11.7756   10.2554   20.8841 N   0  0  0  0  0  0  0  0  0  0  0  0
    8.9876   11.9370   19.8757 O   0  0  0  0  0  0  0  0  0  0  0  0
    6.0167    8.4478   21.1089 C   0  0  0  0  0  0  0  0  0  0  0  0
   11.0002   10.8890   20.0262 C   0  0  0  0  0  0  0  0  0  0  0  0
    2.1721    7.7393   20.0315 O   0  0  0  0  0  0  0  0  0  0  0  0
    9.1107   10.3880   21.3769 N   0  0  0  0  0  0  0  0  0  0  0  0
    3.9102    9.2008   20.3124 C   0  0  0  0  0  0  0  0  0  0  0  0
   12.7292   10.9960   18.4597 C   0  0  0  0  0  0  0  0  0  0  0  0
    9.3798    6.6793   23.6625 C   0  0  0  0  0  0  0  0  0  0  0  0
   14.7425   10.0739   19.0802 O   0  0  0  0  0  0  0  0  0  0  0  0
    5.1894    9.4673   20.7118 C   0  0  0  0  0  0  0  0  0  0  0  0
    7.3773    8.8224   21.4870 C   0  0  0  0  0  0  0  0  0  0  0  0
    8.4391    6.6439   21.0235 C   0  0  0  0  0  0  0  0  0  0  0  0
    9.6494   11.1353   20.4167 C   0  0  0  0  0  0  0  0  0  0  0  0
    8.1431    7.6829   21.9046 C   0  0  0  0  0  0  0  0  0  0  0  0
    7.7796   10.1314   21.5115 N   0  0  0  0  0  0  0  0  0  0  0  0
    9.2768    5.6183   21.4437 C   0  0  0  0  0  0  0  0  0  0  0  0
    8.6315    7.7322   23.1768 C   0  0  0  0  0  0  0  0  0  0  0  0
   13.0537    9.9821   20.5781 C   0  0  0  0  0  0  0  0  0  0  0  0
   10.3850    4.6575   23.2386 O   0  0  0  0  0  0  0  0  0  0  0  0
    4.2069    6.8450   20.7994 C   0  0  0  0  0  0  0  0  0  0  0  0
    3.0726   10.1043   19.8522 O   0  0  0  0  0  0  0  0  0  0  0  0
    5.5057    7.1196   21.1155 C   0  0  0  0  0  0  0  0  0  0  0  0
    7.0367   11.0229   21.9948 O   0  0  0  0  0  0  0  0  0  0  0  0
  1  8  4  0
  1 12  4  0
  2  9  1  0
  2 11  4  0
  2 25  4  0
  3 12  4  0
  3 14  1  0
  3 23  4  0
  4 13  4  0
  4 21  4  0
  4 24  1  0
  5  8  4  0
  5 23  4  0
  6 18  2  0
  7 15  4  0
  7 16  1  0
  7 27  4  0
  8 18  1  0
 10 18  1  0
 10 20  1  0
 11 15  4  0
 11 26  1  0
 13 22  4  0
 16 19  1  0
 16 20  2  0
 17 19  4  0
 17 21  4  0
 19 22  4  0
 20 28  1  0
 25 27  4  0
M  END
$$$$

 Created by Python create_sdf_string function

 28 30  0  0  0  0  0  0  0  0999 V2000
   11.4592   11.2893   18.7941 C   0  0  0  0  0  0  0  0  0  0  0  0
    3.4202    7.9009   20.3866 C   0  0  0  0  0  0  0  0  0  0  0  0
   13.5280   10.3522   19.3586 C   0  0  0  0  0  0  0  0  0  0  0  0
    9.6923    5.6468   22.7891 C   0  0  0  0  0  0  0  0  0  0  0  0
   11.7756   10.2554   20.8841 N   0  0  0  0  0  0  0  0  0  0  0  0
    8.9876   11.9370   19.8757 O   0  0  0  0  0  0  0  0  0  0  0  0
    6.0167    8.4478   21.1089 C   0  0  0  0  0  0  0  0  0  0  0  0
   11.0002   10.8890   20.0262 C   0  0  0  0  0  0  0  0  0  0  0  0
    2.1721    7.7393   20.0315 O   0  0  0  0  0  0  0  0  0  0  0  0
    9.1107   10.3880   21.3769 N   0  0  0  0  0  0  0  0  0  0  0  0
    3.9102    9.2008   20.3124 C   0  0  0  0  0  0  0  0  0  0  0  0
   12.7292   10.9960   18.4597 C   0  0  0  0  0  0  0  0  0  0  0  0
    9.3798    6.6793   23.6625 C   0  0  0  0  0  0  0  0  0  0  0  0
   14.7425   10.0739   19.0802 O   0  0  0  0  0  0  0  0  0  0  0  0
    5.1894    9.4673   20.7118 C   0  0  0  0  0  0  0  0  0  0  0  0
    7.3773    8.8224   21.4870 C   0  0  0  0  0  0  0  0  0  0  0  0
    8.4391    6.6439   21.0235 C   0  0  0  0  0  0  0  0  0  0  0  0
    9.6494   11.1353   20.4167 C   0  0  0  0  0  0  0  0  0  0  0  0
    8.1431    7.6829   21.9046 C   0  0  0  0  0  0  0  0  0  0  0  0
    7.7796   10.1314   21.5115 N   0  0  0  0  0  0  0  0  0  0  0  0
    9.2768    5.6183   21.4437 C   0  0  0  0  0  0  0  0  0  0  0  0
    8.6315    7.7322   23.1768 C   0  0  0  0  0  0  0  0  0  0  0  0
   13.0537    9.9821   20.5781 C   0  0  0  0  0  0  0  0  0  0  0  0
   10.3850    4.6575   23.2386 O   0  0  0  0  0  0  0  0  0  0  0  0
    4.2069    6.8450   20.7994 C   0  0  0  0  0  0  0  0  0  0  0  0
    3.0726   10.1043   19.8522 O   0  0  0  0  0  0  0  0  0  0  0  0
    5.5057    7.1196   21.1155 C   0  0  0  0  0  0  0  0  0  0  0  0
    7.0367   11.0229   21.9948 O   0  0  0  0  0  0  0  0  0  0  0  0
  1  8  4  0
  1 12  4  0
  2  9  1  0
  2 11  4  0
  2 25  4  0
  3 12  4  0
  3 14  1  0
  3 23  4  0
  4 13  4  0
  4 21  4  0
  4 24  1  0
  5  8  4  0
  5 23  4  0
  6 18  2  0
  7 15  4  0
  7 16  1  0
  7 27  4  0
  8 18  1  0
 10 18  1  0
 10 20  1  0
 11 15  4  0
 11 26  1  0
 13 22  4  0
 16 19  1  0
 16 20  2  0
 17 19  4  0
 17 21  4  0
 19 22  4  0
 20 28  1  0
 25 27  4  0
M  END
$$$$

 Created by Python create_sdf_string function

 28 30  0  0  0  0  0  0  0  0999 V2000
   11.4592   11.2893   18.7941 C   0  0  0  0  0  0  0  0  0  0  0  0
    3.4202    7.9009   20.3866 C   0  0  0  0  0  0  0  0  0  0  0  0
   13.5280   10.3522   19.3586 C   0  0  0  0  0  0  0  0  0  0  0  0
    9.6923    5.6468   22.7891 C   0  0  0  0  0  0  0  0  0  0  0  0
   11.7756   10.2554   20.8841 N   0  0  0  0  0  0  0  0  0  0  0  0
    8.9876   11.9370   19.8757 O   0  0  0  0  0  0  0  0  0  0  0  0
    6.0167    8.4478   21.1089 C   0  0  0  0  0  0  0  0  0  0  0  0
   11.0002   10.8890   20.0262 C   0  0  0  0  0  0  0  0  0  0  0  0
    2.1721    7.7393   20.0315 O   0  0  0  0  0  0  0  0  0  0  0  0
    9.1107   10.3880   21.3769 N   0  0  0  0  0  0  0  0  0  0  0  0
    3.9102    9.2008   20.3124 C   0  0  0  0  0  0  0  0  0  0  0  0
   12.7292   10.9960   18.4597 C   0  0  0  0  0  0  0  0  0  0  0  0
    9.3798    6.6793   23.6625 C   0  0  0  0  0  0  0  0  0  0  0  0
   14.7425   10.0739   19.0802 O   0  0  0  0  0  0  0  0  0  0  0  0
    5.1894    9.4673   20.7118 C   0  0  0  0  0  0  0  0  0  0  0  0
    7.3773    8.8224   21.4870 C   0  0  0  0  0  0  0  0  0  0  0  0
    8.4391    6.6439   21.0235 C   0  0  0  0  0  0  0  0  0  0  0  0
    9.6494   11.1353   20.4167 C   0  0  0  0  0  0  0  0  0  0  0  0
    8.1431    7.6829   21.9046 C   0  0  0  0  0  0  0  0  0  0  0  0
    7.7796   10.1314   21.5115 N   0  0  0  0  0  0  0  0  0  0  0  0
    9.2768    5.6183   21.4437 C   0  0  0  0  0  0  0  0  0  0  0  0
    8.6315    7.7322   23.1768 C   0  0  0  0  0  0  0  0  0  0  0  0
   13.0537    9.9821   20.5781 C   0  0  0  0  0  0  0  0  0  0  0  0
   10.3850    4.6575   23.2386 O   0  0  0  0  0  0  0  0  0  0  0  0
    4.2069    6.8450   20.7994 C   0  0  0  0  0  0  0  0  0  0  0  0
    3.0726   10.1043   19.8522 O   0  0  0  0  0  0  0  0  0  0  0  0
    5.5057    7.1196   21.1155 C   0  0  0  0  0  0  0  0  0  0  0  0
    7.0367   11.0229   21.9948 O   0  0  0  0  0  0  0  0  0  0  0  0
  1  8  4  0
  1 12  4  0
  2  9  1  0
  2 11  4  0
  2 25  4  0
  3 12  4  0
  3 14  1  0
  3 23  4  0
  4 13  4  0
  4 21  4  0
  4 24  1  0
  5  8  4  0
  5 23  4  0
  6 18  2  0
  7 15  4  0
  7 16  1  0
  7 27  4  0
  8 18  1  0
 10 18  1  0
 10 20  1  0
 11 15  4  0
 11 26  1  0
 13 22  4  0
 16 19  1  0
 16 20  2  0
 17 19  4  0
 17 21  4  0
 19 22  4  0
 20 28  1  0
 25 27  4  0
M  END
$$$$

 Created by Python create_sdf_string function

 28 30  0  0  0  0  0  0  0  0999 V2000
   11.4592   11.2893   18.7941 C   0  0  0  0  0  0  0  0  0  0  0  0
    3.4202    7.9009   20.3866 C   0  0  0  0  0  0  0  0  0  0  0  0
   13.5280   10.3522   19.3586 C   0  0  0  0  0  0  0  0  0  0  0  0
    9.6923    5.6468   22.7891 C   0  0  0  0  0  0  0  0  0  0  0  0
   11.7756   10.2554   20.8841 N   0  0  0  0  0  0  0  0  0  0  0  0
    8.9876   11.9370   19.8757 O   0  0  0  0  0  0  0  0  0  0  0  0
    6.0167    8.4478   21.1089 C   0  0  0  0  0  0  0  0  0  0  0  0
   11.0002   10.8890   20.0262 C   0  0  0  0  0  0  0  0  0  0  0  0
    2.1721    7.7393   20.0315 O   0  0  0  0  0  0  0  0  0  0  0  0
    9.1107   10.3880   21.3769 N   0  0  0  0  0  0  0  0  0  0  0  0
    3.9102    9.2008   20.3124 C   0  0  0  0  0  0  0  0  0  0  0  0
   12.7292   10.9960   18.4597 C   0  0  0  0  0  0  0  0  0  0  0  0
    9.3798    6.6793   23.6625 C   0  0  0  0  0  0  0  0  0  0  0  0
   14.7425   10.0739   19.0802 O   0  0  0  0  0  0  0  0  0  0  0  0
    5.1894    9.4673   20.7118 C   0  0  0  0  0  0  0  0  0  0  0  0
    7.3773    8.8224   21.4870 C   0  0  0  0  0  0  0  0  0  0  0  0
    8.4391    6.6439   21.0235 C   0  0  0  0  0  0  0  0  0  0  0  0
    9.6494   11.1353   20.4167 C   0  0  0  0  0  0  0  0  0  0  0  0
    8.1431    7.6829   21.9046 C   0  0  0  0  0  0  0  0  0  0  0  0
    7.7796   10.1314   21.5115 N   0  0  0  0  0  0  0  0  0  0  0  0
    9.2768    5.6183   21.4437 C   0  0  0  0  0  0  0  0  0  0  0  0
    8.6315    7.7322   23.1768 C   0  0  0  0  0  0  0  0  0  0  0  0
   13.0537    9.9821   20.5781 C   0  0  0  0  0  0  0  0  0  0  0  0
   10.3850    4.6575   23.2386 O   0  0  0  0  0  0  0  0  0  0  0  0
    4.2069    6.8450   20.7994 C   0  0  0  0  0  0  0  0  0  0  0  0
    3.0726   10.1043   19.8522 O   0  0  0  0  0  0  0  0  0  0  0  0
    5.5057    7.1196   21.1155 C   0  0  0  0  0  0  0  0  0  0  0  0
    7.0367   11.0229   21.9948 O   0  0  0  0  0  0  0  0  0  0  0  0
  1  8  4  0
  1 12  4  0
  2  9  1  0
  2 11  4  0
  2 25  4  0
  3 12  4  0
  3 14  1  0
  3 23  4  0
  4 13  4  0
  4 21  4  0
  4 24  1  0
  5  8  4  0
  5 23  4  0
  6 18  2  0
  7 15  4  0
  7 16  1  0
  7 27  4  0
  8 18  1  0
 10 18  1  0
 10 20  1  0
 11 15  4  0
 11 26  1  0
 13 22  4  0
 16 19  1  0
 16 20  2  0
 17 19  4  0
 17 21  4  0
 19 22  4  0
 20 28  1  0
 25 27  4  0
M  END
$$$$

 Created by Python create_sdf_string function

 28 30  0  0  0  0  0  0  0  0999 V2000
   11.4592   11.2893   18.7941 C   0  0  0  0  0  0  0  0  0  0  0  0
    3.4202    7.9009   20.3866 C   0  0  0  0  0  0  0  0  0  0  0  0
   13.5280   10.3522   19.3586 C   0  0  0  0  0  0  0  0  0  0  0  0
    9.6923    5.6468   22.7891 C   0  0  0  0  0  0  0  0  0  0  0  0
   11.7756   10.2554   20.8841 N   0  0  0  0  0  0  0  0  0  0  0  0
    8.9876   11.9370   19.8757 O   0  0  0  0  0  0  0  0  0  0  0  0
    6.0167    8.4478   21.1089 C   0  0  0  0  0  0  0  0  0  0  0  0
   11.0002   10.8890   20.0262 C   0  0  0  0  0  0  0  0  0  0  0  0
    2.1721    7.7393   20.0315 O   0  0  0  0  0  0  0  0  0  0  0  0
    9.1107   10.3880   21.3769 N   0  0  0  0  0  0  0  0  0  0  0  0
    3.9102    9.2008   20.3124 C   0  0  0  0  0  0  0  0  0  0  0  0
   12.7292   10.9960   18.4597 C   0  0  0  0  0  0  0  0  0  0  0  0
    9.3798    6.6793   23.6625 C   0  0  0  0  0  0  0  0  0  0  0  0
   14.7425   10.0739   19.0802 O   0  0  0  0  0  0  0  0  0  0  0  0
    5.1894    9.4673   20.7118 C   0  0  0  0  0  0  0  0  0  0  0  0
    7.3773    8.8224   21.4870 C   0  0  0  0  0  0  0  0  0  0  0  0
    8.4391    6.6439   21.0235 C   0  0  0  0  0  0  0  0  0  0  0  0
    9.6494   11.1353   20.4167 C   0  0  0  0  0  0  0  0  0  0  0  0
    8.1431    7.6829   21.9046 C   0  0  0  0  0  0  0  0  0  0  0  0
    7.7796   10.1314   21.5115 N   0  0  0  0  0  0  0  0  0  0  0  0
    9.2768    5.6183   21.4437 C   0  0  0  0  0  0  0  0  0  0  0  0
    8.6315    7.7322   23.1768 C   0  0  0  0  0  0  0  0  0  0  0  0
   13.0537    9.9821   20.5781 C   0  0  0  0  0  0  0  0  0  0  0  0
   10.3850    4.6575   23.2386 O   0  0  0  0  0  0  0  0  0  0  0  0
    4.2069    6.8450   20.7994 C   0  0  0  0  0  0  0  0  0  0  0  0
    3.0726   10.1043   19.8522 O   0  0  0  0  0  0  0  0  0  0  0  0
    5.5057    7.1196   21.1155 C   0  0  0  0  0  0  0  0  0  0  0  0
    7.0367   11.0229   21.9948 O   0  0  0  0  0  0  0  0  0  0  0  0
  1  8  4  0
  1 12  4  0
  2  9  1  0
  2 11  4  0
  2 25  4  0
  3 12  4  0
  3 14  1  0
  3 23  4  0
  4 13  4  0
  4 21  4  0
  4 24  1  0
  5  8  4  0
  5 23  4  0
  6 18  2  0
  7 15  4  0
  7 16  1  0
  7 27  4  0
  8 18  1  0
 10 18  1  0
 10 20  1  0
 11 15  4  0
 11 26  1  0
 13 22  4  0
 16 19  1  0
 16 20  2  0
 17 19  4  0
 17 21  4  0
 19 22  4  0
 20 28  1  0
 25 27  4  0
M  END
$$$$

 Created by Python create_sdf_string function

 28 30  0  0  0  0  0  0  0  0999 V2000
   11.4592   11.2893   18.7941 C   0  0  0  0  0  0  0  0  0  0  0  0
    3.4202    7.9009   20.3866 C   0  0  0  0  0  0  0  0  0  0  0  0
   13.5280   10.3522   19.3586 C   0  0  0  0  0  0  0  0  0  0  0  0
    9.6923    5.6468   22.7891 C   0  0  0  0  0  0  0  0  0  0  0  0
   11.7756   10.2554   20.8841 N   0  0  0  0  0  0  0  0  0  0  0  0
    8.9876   11.9370   19.8757 O   0  0  0  0  0  0  0  0  0  0  0  0
    6.0167    8.4478   21.1089 C   0  0  0  0  0  0  0  0  0  0  0  0
   11.0002   10.8890   20.0262 C   0  0  0  0  0  0  0  0  0  0  0  0
    2.1721    7.7393   20.0315 O   0  0  0  0  0  0  0  0  0  0  0  0
    9.1107   10.3880   21.3769 N   0  0  0  0  0  0  0  0  0  0  0  0
    3.9102    9.2008   20.3124 C   0  0  0  0  0  0  0  0  0  0  0  0
   12.7292   10.9960   18.4597 C   0  0  0  0  0  0  0  0  0  0  0  0
    9.3798    6.6793   23.6625 C   0  0  0  0  0  0  0  0  0  0  0  0
   14.7425   10.0739   19.0802 O   0  0  0  0  0  0  0  0  0  0  0  0
    5.1894    9.4673   20.7118 C   0  0  0  0  0  0  0  0  0  0  0  0
    7.3773    8.8224   21.4870 C   0  0  0  0  0  0  0  0  0  0  0  0
    8.4391    6.6439   21.0235 C   0  0  0  0  0  0  0  0  0  0  0  0
    9.6494   11.1353   20.4167 C   0  0  0  0  0  0  0  0  0  0  0  0
    8.1431    7.6829   21.9046 C   0  0  0  0  0  0  0  0  0  0  0  0
    7.7796   10.1314   21.5115 N   0  0  0  0  0  0  0  0  0  0  0  0
    9.2768    5.6183   21.4437 C   0  0  0  0  0  0  0  0  0  0  0  0
    8.6315    7.7322   23.1768 C   0  0  0  0  0  0  0  0  0  0  0  0
   13.0537    9.9821   20.5781 C   0  0  0  0  0  0  0  0  0  0  0  0
   10.3850    4.6575   23.2386 O   0  0  0  0  0  0  0  0  0  0  0  0
    4.2069    6.8450   20.7994 C   0  0  0  0  0  0  0  0  0  0  0  0
    3.0726   10.1043   19.8522 O   0  0  0  0  0  0  0  0  0  0  0  0
    5.5057    7.1196   21.1155 C   0  0  0  0  0  0  0  0  0  0  0  0
    7.0367   11.0229   21.9948 O   0  0  0  0  0  0  0  0  0  0  0  0
  1  8  4  0
  1 12  4  0
  2  9  1  0
  2 11  4  0
  2 25  4  0
  3 12  4  0
  3 14  1  0
  3 23  4  0
  4 13  4  0
  4 21  4  0
  4 24  1  0
  5  8  4  0
  5 23  4  0
  6 18  2  0
  7 15  4  0
  7 16  1  0
  7 27  4  0
  8 18  1  0
 10 18  1  0
 10 20  1  0
 11 15  4  0
 11 26  1  0
 13 22  4  0
 16 19  1  0
 16 20  2  0
 17 19  4  0
 17 21  4  0
 19 22  4  0
 20 28  1  0
 25 27  4  0
M  END
$$$$

 Created by Python create_sdf_string function

 28 30  0  0  0  0  0  0  0  0999 V2000
   11.4592   11.2893   18.7941 C   0  0  0  0  0  0  0  0  0  0  0  0
    3.4202    7.9009   20.3866 C   0  0  0  0  0  0  0  0  0  0  0  0
   13.5280   10.3522   19.3586 C   0  0  0  0  0  0  0  0  0  0  0  0
    9.6923    5.6468   22.7891 C   0  0  0  0  0  0  0  0  0  0  0  0
   11.7756   10.2554   20.8841 N   0  0  0  0  0  0  0  0  0  0  0  0
    8.9876   11.9370   19.8757 O   0  0  0  0  0  0  0  0  0  0  0  0
    6.0167    8.4478   21.1089 C   0  0  0  0  0  0  0  0  0  0  0  0
   11.0002   10.8890   20.0262 C   0  0  0  0  0  0  0  0  0  0  0  0
    2.1721    7.7393   20.0315 O   0  0  0  0  0  0  0  0  0  0  0  0
    9.1107   10.3880   21.3769 N   0  0  0  0  0  0  0  0  0  0  0  0
    3.9102    9.2008   20.3124 C   0  0  0  0  0  0  0  0  0  0  0  0
   12.7292   10.9960   18.4597 C   0  0  0  0  0  0  0  0  0  0  0  0
    9.3798    6.6793   23.6625 C   0  0  0  0  0  0  0  0  0  0  0  0
   14.7425   10.0739   19.0802 O   0  0  0  0  0  0  0  0  0  0  0  0
    5.1894    9.4673   20.7118 C   0  0  0  0  0  0  0  0  0  0  0  0
    7.3773    8.8224   21.4870 C   0  0  0  0  0  0  0  0  0  0  0  0
    8.4391    6.6439   21.0235 C   0  0  0  0  0  0  0  0  0  0  0  0
    9.6494   11.1353   20.4167 C   0  0  0  0  0  0  0  0  0  0  0  0
    8.1431    7.6829   21.9046 C   0  0  0  0  0  0  0  0  0  0  0  0
    7.7796   10.1314   21.5115 N   0  0  0  0  0  0  0  0  0  0  0  0
    9.2768    5.6183   21.4437 C   0  0  0  0  0  0  0  0  0  0  0  0
    8.6315    7.7322   23.1768 C   0  0  0  0  0  0  0  0  0  0  0  0
   13.0537    9.9821   20.5781 C   0  0  0  0  0  0  0  0  0  0  0  0
   10.3850    4.6575   23.2386 O   0  0  0  0  0  0  0  0  0  0  0  0
    4.2069    6.8450   20.7994 C   0  0  0  0  0  0  0  0  0  0  0  0
    3.0726   10.1043   19.8522 O   0  0  0  0  0  0  0  0  0  0  0  0
    5.5057    7.1196   21.1155 C   0  0  0  0  0  0  0  0  0  0  0  0
    7.0367   11.0229   21.9948 O   0  0  0  0  0  0  0  0  0  0  0  0
  1  8  4  0
  1 12  4  0
  2  9  1  0
  2 11  4  0
  2 25  4  0
  3 12  4  0
  3 14  1  0
  3 23  4  0
  4 13  4  0
  4 21  4  0
  4 24  1  0
  5  8  4  0
  5 23  4  0
  6 18  2  0
  7 15  4  0
  7 16  1  0
  7 27  4  0
  8 18  1  0
 10 18  1  0
 10 20  1  0
 11 15  4  0
 11 26  1  0
 13 22  4  0
 16 19  1  0
 16 20  2  0
 17 19  4  0
 17 21  4  0
 19 22  4  0
 20 28  1  0
 25 27  4  0
M  END
$$$$

 Created by Python create_sdf_string function

 28 30  0  0  0  0  0  0  0  0999 V2000
   11.4592   11.2893   18.7941 C   0  0  0  0  0  0  0  0  0  0  0  0
    3.4202    7.9009   20.3866 C   0  0  0  0  0  0  0  0  0  0  0  0
   13.5280   10.3522   19.3586 C   0  0  0  0  0  0  0  0  0  0  0  0
    9.6923    5.6468   22.7891 C   0  0  0  0  0  0  0  0  0  0  0  0
   11.7756   10.2554   20.8841 N   0  0  0  0  0  0  0  0  0  0  0  0
    8.9876   11.9370   19.8757 O   0  0  0  0  0  0  0  0  0  0  0  0
    6.0167    8.4478   21.1089 C   0  0  0  0  0  0  0  0  0  0  0  0
   11.0002   10.8890   20.0262 C   0  0  0  0  0  0  0  0  0  0  0  0
    2.1721    7.7393   20.0315 O   0  0  0  0  0  0  0  0  0  0  0  0
    9.1107   10.3880   21.3769 N   0  0  0  0  0  0  0  0  0  0  0  0
    3.9102    9.2008   20.3124 C   0  0  0  0  0  0  0  0  0  0  0  0
   12.7292   10.9960   18.4597 C   0  0  0  0  0  0  0  0  0  0  0  0
    9.3798    6.6793   23.6625 C   0  0  0  0  0  0  0  0  0  0  0  0
   14.7425   10.0739   19.0802 O   0  0  0  0  0  0  0  0  0  0  0  0
    5.1894    9.4673   20.7118 C   0  0  0  0  0  0  0  0  0  0  0  0
    7.3773    8.8224   21.4870 C   0  0  0  0  0  0  0  0  0  0  0  0
    8.4391    6.6439   21.0235 C   0  0  0  0  0  0  0  0  0  0  0  0
    9.6494   11.1353   20.4167 C   0  0  0  0  0  0  0  0  0  0  0  0
    8.1431    7.6829   21.9046 C   0  0  0  0  0  0  0  0  0  0  0  0
    7.7796   10.1314   21.5115 N   0  0  0  0  0  0  0  0  0  0  0  0
    9.2768    5.6183   21.4437 C   0  0  0  0  0  0  0  0  0  0  0  0
    8.6315    7.7322   23.1768 C   0  0  0  0  0  0  0  0  0  0  0  0
   13.0537    9.9821   20.5781 C   0  0  0  0  0  0  0  0  0  0  0  0
   10.3850    4.6575   23.2386 O   0  0  0  0  0  0  0  0  0  0  0  0
    4.2069    6.8450   20.7994 C   0  0  0  0  0  0  0  0  0  0  0  0
    3.0726   10.1043   19.8522 O   0  0  0  0  0  0  0  0  0  0  0  0
    5.5057    7.1196   21.1155 C   0  0  0  0  0  0  0  0  0  0  0  0
    7.0367   11.0229   21.9948 O   0  0  0  0  0  0  0  0  0  0  0  0
  1  8  4  0
  1 12  4  0
  2  9  1  0
  2 11  4  0
  2 25  4  0
  3 12  4  0
  3 14  1  0
  3 23  4  0
  4 13  4  0
  4 21  4  0
  4 24  1  0
  5  8  4  0
  5 23  4  0
  6 18  2  0
  7 15  4  0
  7 16  1  0
  7 27  4  0
  8 18  1  0
 10 18  1  0
 10 20  1  0
 11 15  4  0
 11 26  1  0
 13 22  4  0
 16 19  1  0
 16 20  2  0
 17 19  4  0
 17 21  4  0
 19 22  4  0
 20 28  1  0
 25 27  4  0
M  END
$$$$

 Created by Python create_sdf_string function

 28 30  0  0  0  0  0  0  0  0999 V2000
   11.4592   11.2893   18.7941 C   0  0  0  0  0  0  0  0  0  0  0  0
    3.4202    7.9009   20.3866 C   0  0  0  0  0  0  0  0  0  0  0  0
   13.5280   10.3522   19.3586 C   0  0  0  0  0  0  0  0  0  0  0  0
    9.6923    5.6468   22.7891 C   0  0  0  0  0  0  0  0  0  0  0  0
   11.7756   10.2554   20.8841 N   0  0  0  0  0  0  0  0  0  0  0  0
    8.9876   11.9370   19.8757 O   0  0  0  0  0  0  0  0  0  0  0  0
    6.0167    8.4478   21.1089 C   0  0  0  0  0  0  0  0  0  0  0  0
   11.0002   10.8890   20.0262 C   0  0  0  0  0  0  0  0  0  0  0  0
    2.1721    7.7393   20.0315 O   0  0  0  0  0  0  0  0  0  0  0  0
    9.1107   10.3880   21.3769 N   0  0  0  0  0  0  0  0  0  0  0  0
    3.9102    9.2008   20.3124 C   0  0  0  0  0  0  0  0  0  0  0  0
   12.7292   10.9960   18.4597 C   0  0  0  0  0  0  0  0  0  0  0  0
    9.3798    6.6793   23.6625 C   0  0  0  0  0  0  0  0  0  0  0  0
   14.7425   10.0739   19.0802 O   0  0  0  0  0  0  0  0  0  0  0  0
    5.1894    9.4673   20.7118 C   0  0  0  0  0  0  0  0  0  0  0  0
    7.3773    8.8224   21.4870 C   0  0  0  0  0  0  0  0  0  0  0  0
    8.4391    6.6439   21.0235 C   0  0  0  0  0  0  0  0  0  0  0  0
    9.6494   11.1353   20.4167 C   0  0  0  0  0  0  0  0  0  0  0  0
    8.1431    7.6829   21.9046 C   0  0  0  0  0  0  0  0  0  0  0  0
    7.7796   10.1314   21.5115 N   0  0  0  0  0  0  0  0  0  0  0  0
    9.2768    5.6183   21.4437 C   0  0  0  0  0  0  0  0  0  0  0  0
    8.6315    7.7322   23.1768 C   0  0  0  0  0  0  0  0  0  0  0  0
   13.0537    9.9821   20.5781 C   0  0  0  0  0  0  0  0  0  0  0  0
   10.3850    4.6575   23.2386 O   0  0  0  0  0  0  0  0  0  0  0  0
    4.2069    6.8450   20.7994 C   0  0  0  0  0  0  0  0  0  0  0  0
    3.0726   10.1043   19.8522 O   0  0  0  0  0  0  0  0  0  0  0  0
    5.5057    7.1196   21.1155 C   0  0  0  0  0  0  0  0  0  0  0  0
    7.0367   11.0229   21.9948 O   0  0  0  0  0  0  0  0  0  0  0  0
  1  8  4  0
  1 12  4  0
  2  9  1  0
  2 11  4  0
  2 25  4  0
  3 12  4  0
  3 14  1  0
  3 23  4  0
  4 13  4  0
  4 21  4  0
  4 24  1  0
  5  8  4  0
  5 23  4  0
  6 18  2  0
  7 15  4  0
  7 16  1  0
  7 27  4  0
  8 18  1  0
 10 18  1  0
 10 20  1  0
 11 15  4  0
 11 26  1  0
 13 22  4  0
 16 19  1  0
 16 20  2  0
 17 19  4  0
 17 21  4  0
 19 22  4  0
 20 28  1  0
 25 27  4  0
M  END
$$$$

 Created by Python create_sdf_string function

 28 30  0  0  0  0  0  0  0  0999 V2000
   11.4592   11.2893   18.7941 C   0  0  0  0  0  0  0  0  0  0  0  0
    3.4202    7.9009   20.3866 C   0  0  0  0  0  0  0  0  0  0  0  0
   13.5280   10.3522   19.3586 C   0  0  0  0  0  0  0  0  0  0  0  0
    9.6923    5.6468   22.7891 C   0  0  0  0  0  0  0  0  0  0  0  0
   11.7756   10.2554   20.8841 N   0  0  0  0  0  0  0  0  0  0  0  0
    8.9876   11.9370   19.8757 O   0  0  0  0  0  0  0  0  0  0  0  0
    6.0167    8.4478   21.1089 C   0  0  0  0  0  0  0  0  0  0  0  0
   11.0002   10.8890   20.0262 C   0  0  0  0  0  0  0  0  0  0  0  0
    2.1721    7.7393   20.0315 O   0  0  0  0  0  0  0  0  0  0  0  0
    9.1107   10.3880   21.3769 N   0  0  0  0  0  0  0  0  0  0  0  0
    3.9102    9.2008   20.3124 C   0  0  0  0  0  0  0  0  0  0  0  0
   12.7292   10.9960   18.4597 C   0  0  0  0  0  0  0  0  0  0  0  0
    9.3798    6.6793   23.6625 C   0  0  0  0  0  0  0  0  0  0  0  0
   14.7425   10.0739   19.0802 O   0  0  0  0  0  0  0  0  0  0  0  0
    5.1894    9.4673   20.7118 C   0  0  0  0  0  0  0  0  0  0  0  0
    7.3773    8.8224   21.4870 C   0  0  0  0  0  0  0  0  0  0  0  0
    8.4391    6.6439   21.0235 C   0  0  0  0  0  0  0  0  0  0  0  0
    9.6494   11.1353   20.4167 C   0  0  0  0  0  0  0  0  0  0  0  0
    8.1431    7.6829   21.9046 C   0  0  0  0  0  0  0  0  0  0  0  0
    7.7796   10.1314   21.5115 N   0  0  0  0  0  0  0  0  0  0  0  0
    9.2768    5.6183   21.4437 C   0  0  0  0  0  0  0  0  0  0  0  0
    8.6315    7.7322   23.1768 C   0  0  0  0  0  0  0  0  0  0  0  0
   13.0537    9.9821   20.5781 C   0  0  0  0  0  0  0  0  0  0  0  0
   10.3850    4.6575   23.2386 O   0  0  0  0  0  0  0  0  0  0  0  0
    4.2069    6.8450   20.7994 C   0  0  0  0  0  0  0  0  0  0  0  0
    3.0726   10.1043   19.8522 O   0  0  0  0  0  0  0  0  0  0  0  0
    5.5057    7.1196   21.1155 C   0  0  0  0  0  0  0  0  0  0  0  0
    7.0367   11.0229   21.9948 O   0  0  0  0  0  0  0  0  0  0  0  0
  1  8  4  0
  1 12  4  0
  2  9  1  0
  2 11  4  0
  2 25  4  0
  3 12  4  0
  3 14  1  0
  3 23  4  0
  4 13  4  0
  4 21  4  0
  4 24  1  0
  5  8  4  0
  5 23  4  0
  6 18  2  0
  7 15  4  0
  7 16  1  0
  7 27  4  0
  8 18  1  0
 10 18  1  0
 10 20  1  0
 11 15  4  0
 11 26  1  0
 13 22  4  0
 16 19  1  0
 16 20  2  0
 17 19  4  0
 17 21  4  0
 19 22  4  0
 20 28  1  0
 25 27  4  0
M  END
$$$$

 Created by Python create_sdf_string function

 28 30  0  0  0  0  0  0  0  0999 V2000
   11.4592   11.2893   18.7941 C   0  0  0  0  0  0  0  0  0  0  0  0
    3.4202    7.9009   20.3866 C   0  0  0  0  0  0  0  0  0  0  0  0
   13.5280   10.3522   19.3586 C   0  0  0  0  0  0  0  0  0  0  0  0
    9.6923    5.6468   22.7891 C   0  0  0  0  0  0  0  0  0  0  0  0
   11.7756   10.2554   20.8841 N   0  0  0  0  0  0  0  0  0  0  0  0
    8.9876   11.9370   19.8757 O   0  0  0  0  0  0  0  0  0  0  0  0
    6.0167    8.4478   21.1089 C   0  0  0  0  0  0  0  0  0  0  0  0
   11.0002   10.8890   20.0262 C   0  0  0  0  0  0  0  0  0  0  0  0
    2.1721    7.7393   20.0315 O   0  0  0  0  0  0  0  0  0  0  0  0
    9.1107   10.3880   21.3769 N   0  0  0  0  0  0  0  0  0  0  0  0
    3.9102    9.2008   20.3124 C   0  0  0  0  0  0  0  0  0  0  0  0
   12.7292   10.9960   18.4597 C   0  0  0  0  0  0  0  0  0  0  0  0
    9.3798    6.6793   23.6625 C   0  0  0  0  0  0  0  0  0  0  0  0
   14.7425   10.0739   19.0802 O   0  0  0  0  0  0  0  0  0  0  0  0
    5.1894    9.4673   20.7118 C   0  0  0  0  0  0  0  0  0  0  0  0
    7.3773    8.8224   21.4870 C   0  0  0  0  0  0  0  0  0  0  0  0
    8.4391    6.6439   21.0235 C   0  0  0  0  0  0  0  0  0  0  0  0
    9.6494   11.1353   20.4167 C   0  0  0  0  0  0  0  0  0  0  0  0
    8.1431    7.6829   21.9046 C   0  0  0  0  0  0  0  0  0  0  0  0
    7.7796   10.1314   21.5115 N   0  0  0  0  0  0  0  0  0  0  0  0
    9.2768    5.6183   21.4437 C   0  0  0  0  0  0  0  0  0  0  0  0
    8.6315    7.7322   23.1768 C   0  0  0  0  0  0  0  0  0  0  0  0
   13.0537    9.9821   20.5781 C   0  0  0  0  0  0  0  0  0  0  0  0
   10.3850    4.6575   23.2386 O   0  0  0  0  0  0  0  0  0  0  0  0
    4.2069    6.8450   20.7994 C   0  0  0  0  0  0  0  0  0  0  0  0
    3.0726   10.1043   19.8522 O   0  0  0  0  0  0  0  0  0  0  0  0
    5.5057    7.1196   21.1155 C   0  0  0  0  0  0  0  0  0  0  0  0
    7.0367   11.0229   21.9948 O   0  0  0  0  0  0  0  0  0  0  0  0
  1  8  4  0
  1 12  4  0
  2  9  1  0
  2 11  4  0
  2 25  4  0
  3 12  4  0
  3 14  1  0
  3 23  4  0
  4 13  4  0
  4 21  4  0
  4 24  1  0
  5  8  4  0
  5 23  4  0
  6 18  2  0
  7 15  4  0
  7 16  1  0
  7 27  4  0
  8 18  1  0
 10 18  1  0
 10 20  1  0
 11 15  4  0
 11 26  1  0
 13 22  4  0
 16 19  1  0
 16 20  2  0
 17 19  4  0
 17 21  4  0
 19 22  4  0
 20 28  1  0
 25 27  4  0
M  END
$$$$

 Created by Python create_sdf_string function

 28 30  0  0  0  0  0  0  0  0999 V2000
   11.4592   11.2893   18.7941 C   0  0  0  0  0  0  0  0  0  0  0  0
    3.4202    7.9009   20.3866 C   0  0  0  0  0  0  0  0  0  0  0  0
   13.5280   10.3522   19.3586 C   0  0  0  0  0  0  0  0  0  0  0  0
    9.6923    5.6468   22.7891 C   0  0  0  0  0  0  0  0  0  0  0  0
   11.7756   10.2554   20.8841 N   0  0  0  0  0  0  0  0  0  0  0  0
    8.9876   11.9370   19.8757 O   0  0  0  0  0  0  0  0  0  0  0  0
    6.0167    8.4478   21.1089 C   0  0  0  0  0  0  0  0  0  0  0  0
   11.0002   10.8890   20.0262 C   0  0  0  0  0  0  0  0  0  0  0  0
    2.1721    7.7393   20.0315 O   0  0  0  0  0  0  0  0  0  0  0  0
    9.1107   10.3880   21.3769 N   0  0  0  0  0  0  0  0  0  0  0  0
    3.9102    9.2008   20.3124 C   0  0  0  0  0  0  0  0  0  0  0  0
   12.7292   10.9960   18.4597 C   0  0  0  0  0  0  0  0  0  0  0  0
    9.3798    6.6793   23.6625 C   0  0  0  0  0  0  0  0  0  0  0  0
   14.7425   10.0739   19.0802 O   0  0  0  0  0  0  0  0  0  0  0  0
    5.1894    9.4673   20.7118 C   0  0  0  0  0  0  0  0  0  0  0  0
    7.3773    8.8224   21.4870 C   0  0  0  0  0  0  0  0  0  0  0  0
    8.4391    6.6439   21.0235 C   0  0  0  0  0  0  0  0  0  0  0  0
    9.6494   11.1353   20.4167 C   0  0  0  0  0  0  0  0  0  0  0  0
    8.1431    7.6829   21.9046 C   0  0  0  0  0  0  0  0  0  0  0  0
    7.7796   10.1314   21.5115 N   0  0  0  0  0  0  0  0  0  0  0  0
    9.2768    5.6183   21.4437 C   0  0  0  0  0  0  0  0  0  0  0  0
    8.6315    7.7322   23.1768 C   0  0  0  0  0  0  0  0  0  0  0  0
   13.0537    9.9821   20.5781 C   0  0  0  0  0  0  0  0  0  0  0  0
   10.3850    4.6575   23.2386 O   0  0  0  0  0  0  0  0  0  0  0  0
    4.2069    6.8450   20.7994 C   0  0  0  0  0  0  0  0  0  0  0  0
    3.0726   10.1043   19.8522 O   0  0  0  0  0  0  0  0  0  0  0  0
    5.5057    7.1196   21.1155 C   0  0  0  0  0  0  0  0  0  0  0  0
    7.0367   11.0229   21.9948 O   0  0  0  0  0  0  0  0  0  0  0  0
  1  8  4  0
  1 12  4  0
  2  9  1  0
  2 11  4  0
  2 25  4  0
  3 12  4  0
  3 14  1  0
  3 23  4  0
  4 13  4  0
  4 21  4  0
  4 24  1  0
  5  8  4  0
  5 23  4  0
  6 18  2  0
  7 15  4  0
  7 16  1  0
  7 27  4  0
  8 18  1  0
 10 18  1  0
 10 20  1  0
 11 15  4  0
 11 26  1  0
 13 22  4  0
 16 19  1  0
 16 20  2  0
 17 19  4  0
 17 21  4  0
 19 22  4  0
 20 28  1  0
 25 27  4  0
M  END
$$$$

 Created by Python create_sdf_string function

 28 30  0  0  0  0  0  0  0  0999 V2000
   11.4592   11.2893   18.7941 C   0  0  0  0  0  0  0  0  0  0  0  0
    3.4202    7.9009   20.3866 C   0  0  0  0  0  0  0  0  0  0  0  0
   13.5280   10.3522   19.3586 C   0  0  0  0  0  0  0  0  0  0  0  0
    9.6923    5.6468   22.7891 C   0  0  0  0  0  0  0  0  0  0  0  0
   11.7756   10.2554   20.8841 N   0  0  0  0  0  0  0  0  0  0  0  0
    8.9876   11.9370   19.8757 O   0  0  0  0  0  0  0  0  0  0  0  0
    6.0167    8.4478   21.1089 C   0  0  0  0  0  0  0  0  0  0  0  0
   11.0002   10.8890   20.0262 C   0  0  0  0  0  0  0  0  0  0  0  0
    2.1721    7.7393   20.0315 O   0  0  0  0  0  0  0  0  0  0  0  0
    9.1107   10.3880   21.3769 N   0  0  0  0  0  0  0  0  0  0  0  0
    3.9102    9.2008   20.3124 C   0  0  0  0  0  0  0  0  0  0  0  0
   12.7292   10.9960   18.4597 C   0  0  0  0  0  0  0  0  0  0  0  0
    9.3798    6.6793   23.6625 C   0  0  0  0  0  0  0  0  0  0  0  0
   14.7425   10.0739   19.0802 O   0  0  0  0  0  0  0  0  0  0  0  0
    5.1894    9.4673   20.7118 C   0  0  0  0  0  0  0  0  0  0  0  0
    7.3773    8.8224   21.4870 C   0  0  0  0  0  0  0  0  0  0  0  0
    8.4391    6.6439   21.0235 C   0  0  0  0  0  0  0  0  0  0  0  0
    9.6494   11.1353   20.4167 C   0  0  0  0  0  0  0  0  0  0  0  0
    8.1431    7.6829   21.9046 C   0  0  0  0  0  0  0  0  0  0  0  0
    7.7796   10.1314   21.5115 N   0  0  0  0  0  0  0  0  0  0  0  0
    9.2768    5.6183   21.4437 C   0  0  0  0  0  0  0  0  0  0  0  0
    8.6315    7.7322   23.1768 C   0  0  0  0  0  0  0  0  0  0  0  0
   13.0537    9.9821   20.5781 C   0  0  0  0  0  0  0  0  0  0  0  0
   10.3850    4.6575   23.2386 O   0  0  0  0  0  0  0  0  0  0  0  0
    4.2069    6.8450   20.7994 C   0  0  0  0  0  0  0  0  0  0  0  0
    3.0726   10.1043   19.8522 O   0  0  0  0  0  0  0  0  0  0  0  0
    5.5057    7.1196   21.1155 C   0  0  0  0  0  0  0  0  0  0  0  0
    7.0367   11.0229   21.9948 O   0  0  0  0  0  0  0  0  0  0  0  0
  1  8  4  0
  1 12  4  0
  2  9  1  0
  2 11  4  0
  2 25  4  0
  3 12  4  0
  3 14  1  0
  3 23  4  0
  4 13  4  0
  4 21  4  0
  4 24  1  0
  5  8  4  0
  5 23  4  0
  6 18  2  0
  7 15  4  0
  7 16  1  0
  7 27  4  0
  8 18  1  0
 10 18  1  0
 10 20  1  0
 11 15  4  0
 11 26  1  0
 13 22  4  0
 16 19  1  0
 16 20  2  0
 17 19  4  0
 17 21  4  0
 19 22  4  0
 20 28  1  0
 25 27  4  0
M  END
$$$$

 Created by Python create_sdf_string function

 28 30  0  0  0  0  0  0  0  0999 V2000
   11.4592   11.2893   18.7941 C   0  0  0  0  0  0  0  0  0  0  0  0
    3.4202    7.9009   20.3866 C   0  0  0  0  0  0  0  0  0  0  0  0
   13.5280   10.3522   19.3586 C   0  0  0  0  0  0  0  0  0  0  0  0
    9.6923    5.6468   22.7891 C   0  0  0  0  0  0  0  0  0  0  0  0
   11.7756   10.2554   20.8841 N   0  0  0  0  0  0  0  0  0  0  0  0
    8.9876   11.9370   19.8757 O   0  0  0  0  0  0  0  0  0  0  0  0
    6.0167    8.4478   21.1089 C   0  0  0  0  0  0  0  0  0  0  0  0
   11.0002   10.8890   20.0262 C   0  0  0  0  0  0  0  0  0  0  0  0
    2.1721    7.7393   20.0315 O   0  0  0  0  0  0  0  0  0  0  0  0
    9.1107   10.3880   21.3769 N   0  0  0  0  0  0  0  0  0  0  0  0
    3.9102    9.2008   20.3124 C   0  0  0  0  0  0  0  0  0  0  0  0
   12.7292   10.9960   18.4597 C   0  0  0  0  0  0  0  0  0  0  0  0
    9.3798    6.6793   23.6625 C   0  0  0  0  0  0  0  0  0  0  0  0
   14.7425   10.0739   19.0802 O   0  0  0  0  0  0  0  0  0  0  0  0
    5.1894    9.4673   20.7118 C   0  0  0  0  0  0  0  0  0  0  0  0
    7.3773    8.8224   21.4870 C   0  0  0  0  0  0  0  0  0  0  0  0
    8.4391    6.6439   21.0235 C   0  0  0  0  0  0  0  0  0  0  0  0
    9.6494   11.1353   20.4167 C   0  0  0  0  0  0  0  0  0  0  0  0
    8.1431    7.6829   21.9046 C   0  0  0  0  0  0  0  0  0  0  0  0
    7.7796   10.1314   21.5115 N   0  0  0  0  0  0  0  0  0  0  0  0
    9.2768    5.6183   21.4437 C   0  0  0  0  0  0  0  0  0  0  0  0
    8.6315    7.7322   23.1768 C   0  0  0  0  0  0  0  0  0  0  0  0
   13.0537    9.9821   20.5781 C   0  0  0  0  0  0  0  0  0  0  0  0
   10.3850    4.6575   23.2386 O   0  0  0  0  0  0  0  0  0  0  0  0
    4.2069    6.8450   20.7994 C   0  0  0  0  0  0  0  0  0  0  0  0
    3.0726   10.1043   19.8522 O   0  0  0  0  0  0  0  0  0  0  0  0
    5.5057    7.1196   21.1155 C   0  0  0  0  0  0  0  0  0  0  0  0
    7.0367   11.0229   21.9948 O   0  0  0  0  0  0  0  0  0  0  0  0
  1  8  4  0
  1 12  4  0
  2  9  1  0
  2 11  4  0
  2 25  4  0
  3 12  4  0
  3 14  1  0
  3 23  4  0
  4 13  4  0
  4 21  4  0
  4 24  1  0
  5  8  4  0
  5 23  4  0
  6 18  2  0
  7 15  4  0
  7 16  1  0
  7 27  4  0
  8 18  1  0
 10 18  1  0
 10 20  1  0
 11 15  4  0
 11 26  1  0
 13 22  4  0
 16 19  1  0
 16 20  2  0
 17 19  4  0
 17 21  4  0
 19 22  4  0
 20 28  1  0
 25 27  4  0
M  END
$$$$

 Created by Python create_sdf_string function

 28 30  0  0  0  0  0  0  0  0999 V2000
   11.4592   11.2893   18.7941 C   0  0  0  0  0  0  0  0  0  0  0  0
    3.4202    7.9009   20.3866 C   0  0  0  0  0  0  0  0  0  0  0  0
   13.5280   10.3522   19.3586 C   0  0  0  0  0  0  0  0  0  0  0  0
    9.6923    5.6468   22.7891 C   0  0  0  0  0  0  0  0  0  0  0  0
   11.7756   10.2554   20.8841 N   0  0  0  0  0  0  0  0  0  0  0  0
    8.9876   11.9370   19.8757 O   0  0  0  0  0  0  0  0  0  0  0  0
    6.0167    8.4478   21.1089 C   0  0  0  0  0  0  0  0  0  0  0  0
   11.0002   10.8890   20.0262 C   0  0  0  0  0  0  0  0  0  0  0  0
    2.1721    7.7393   20.0315 O   0  0  0  0  0  0  0  0  0  0  0  0
    9.1107   10.3880   21.3769 N   0  0  0  0  0  0  0  0  0  0  0  0
    3.9102    9.2008   20.3124 C   0  0  0  0  0  0  0  0  0  0  0  0
   12.7292   10.9960   18.4597 C   0  0  0  0  0  0  0  0  0  0  0  0
    9.3798    6.6793   23.6625 C   0  0  0  0  0  0  0  0  0  0  0  0
   14.7425   10.0739   19.0802 O   0  0  0  0  0  0  0  0  0  0  0  0
    5.1894    9.4673   20.7118 C   0  0  0  0  0  0  0  0  0  0  0  0
    7.3773    8.8224   21.4870 C   0  0  0  0  0  0  0  0  0  0  0  0
    8.4391    6.6439   21.0235 C   0  0  0  0  0  0  0  0  0  0  0  0
    9.6494   11.1353   20.4167 C   0  0  0  0  0  0  0  0  0  0  0  0
    8.1431    7.6829   21.9046 C   0  0  0  0  0  0  0  0  0  0  0  0
    7.7796   10.1314   21.5115 N   0  0  0  0  0  0  0  0  0  0  0  0
    9.2768    5.6183   21.4437 C   0  0  0  0  0  0  0  0  0  0  0  0
    8.6315    7.7322   23.1768 C   0  0  0  0  0  0  0  0  0  0  0  0
   13.0537    9.9821   20.5781 C   0  0  0  0  0  0  0  0  0  0  0  0
   10.3850    4.6575   23.2386 O   0  0  0  0  0  0  0  0  0  0  0  0
    4.2069    6.8450   20.7994 C   0  0  0  0  0  0  0  0  0  0  0  0
    3.0726   10.1043   19.8522 O   0  0  0  0  0  0  0  0  0  0  0  0
    5.5057    7.1196   21.1155 C   0  0  0  0  0  0  0  0  0  0  0  0
    7.0367   11.0229   21.9948 O   0  0  0  0  0  0  0  0  0  0  0  0
  1  8  4  0
  1 12  4  0
  2  9  1  0
  2 11  4  0
  2 25  4  0
  3 12  4  0
  3 14  1  0
  3 23  4  0
  4 13  4  0
  4 21  4  0
  4 24  1  0
  5  8  4  0
  5 23  4  0
  6 18  2  0
  7 15  4  0
  7 16  1  0
  7 27  4  0
  8 18  1  0
 10 18  1  0
 10 20  1  0
 11 15  4  0
 11 26  1  0
 13 22  4  0
 16 19  1  0
 16 20  2  0
 17 19  4  0
 17 21  4  0
 19 22  4  0
 20 28  1  0
 25 27  4  0
M  END
$$$$

 Created by Python create_sdf_string function

 28 30  0  0  0  0  0  0  0  0999 V2000
   11.4592   11.2893   18.7941 C   0  0  0  0  0  0  0  0  0  0  0  0
    3.4202    7.9009   20.3866 C   0  0  0  0  0  0  0  0  0  0  0  0
   13.5280   10.3522   19.3586 C   0  0  0  0  0  0  0  0  0  0  0  0
    9.6923    5.6468   22.7891 C   0  0  0  0  0  0  0  0  0  0  0  0
   11.7756   10.2554   20.8841 N   0  0  0  0  0  0  0  0  0  0  0  0
    8.9876   11.9370   19.8757 O   0  0  0  0  0  0  0  0  0  0  0  0
    6.0167    8.4478   21.1089 C   0  0  0  0  0  0  0  0  0  0  0  0
   11.0002   10.8890   20.0262 C   0  0  0  0  0  0  0  0  0  0  0  0
    2.1721    7.7393   20.0315 O   0  0  0  0  0  0  0  0  0  0  0  0
    9.1107   10.3880   21.3769 N   0  0  0  0  0  0  0  0  0  0  0  0
    3.9102    9.2008   20.3124 C   0  0  0  0  0  0  0  0  0  0  0  0
   12.7292   10.9960   18.4597 C   0  0  0  0  0  0  0  0  0  0  0  0
    9.3798    6.6793   23.6625 C   0  0  0  0  0  0  0  0  0  0  0  0
   14.7425   10.0739   19.0802 O   0  0  0  0  0  0  0  0  0  0  0  0
    5.1894    9.4673   20.7118 C   0  0  0  0  0  0  0  0  0  0  0  0
    7.3773    8.8224   21.4870 C   0  0  0  0  0  0  0  0  0  0  0  0
    8.4391    6.6439   21.0235 C   0  0  0  0  0  0  0  0  0  0  0  0
    9.6494   11.1353   20.4167 C   0  0  0  0  0  0  0  0  0  0  0  0
    8.1431    7.6829   21.9046 C   0  0  0  0  0  0  0  0  0  0  0  0
    7.7796   10.1314   21.5115 N   0  0  0  0  0  0  0  0  0  0  0  0
    9.2768    5.6183   21.4437 C   0  0  0  0  0  0  0  0  0  0  0  0
    8.6315    7.7322   23.1768 C   0  0  0  0  0  0  0  0  0  0  0  0
   13.0537    9.9821   20.5781 C   0  0  0  0  0  0  0  0  0  0  0  0
   10.3850    4.6575   23.2386 O   0  0  0  0  0  0  0  0  0  0  0  0
    4.2069    6.8450   20.7994 C   0  0  0  0  0  0  0  0  0  0  0  0
    3.0726   10.1043   19.8522 O   0  0  0  0  0  0  0  0  0  0  0  0
    5.5057    7.1196   21.1155 C   0  0  0  0  0  0  0  0  0  0  0  0
    7.0367   11.0229   21.9948 O   0  0  0  0  0  0  0  0  0  0  0  0
  1  8  4  0
  1 12  4  0
  2  9  1  0
  2 11  4  0
  2 25  4  0
  3 12  4  0
  3 14  1  0
  3 23  4  0
  4 13  4  0
  4 21  4  0
  4 24  1  0
  5  8  4  0
  5 23  4  0
  6 18  2  0
  7 15  4  0
  7 16  1  0
  7 27  4  0
  8 18  1  0
 10 18  1  0
 10 20  1  0
 11 15  4  0
 11 26  1  0
 13 22  4  0
 16 19  1  0
 16 20  2  0
 17 19  4  0
 17 21  4  0
 19 22  4  0
 20 28  1  0
 25 27  4  0
M  END
$$$$

 Created by Python create_sdf_string function

 28 30  0  0  0  0  0  0  0  0999 V2000
   11.4592   11.2893   18.7941 C   0  0  0  0  0  0  0  0  0  0  0  0
    3.4202    7.9009   20.3866 C   0  0  0  0  0  0  0  0  0  0  0  0
   13.5280   10.3522   19.3586 C   0  0  0  0  0  0  0  0  0  0  0  0
    9.6923    5.6468   22.7891 C   0  0  0  0  0  0  0  0  0  0  0  0
   11.7756   10.2554   20.8841 N   0  0  0  0  0  0  0  0  0  0  0  0
    8.9876   11.9370   19.8757 O   0  0  0  0  0  0  0  0  0  0  0  0
    6.0167    8.4478   21.1089 C   0  0  0  0  0  0  0  0  0  0  0  0
   11.0002   10.8890   20.0262 C   0  0  0  0  0  0  0  0  0  0  0  0
    2.1721    7.7393   20.0315 O   0  0  0  0  0  0  0  0  0  0  0  0
    9.1107   10.3880   21.3769 N   0  0  0  0  0  0  0  0  0  0  0  0
    3.9102    9.2008   20.3124 C   0  0  0  0  0  0  0  0  0  0  0  0
   12.7292   10.9960   18.4597 C   0  0  0  0  0  0  0  0  0  0  0  0
    9.3798    6.6793   23.6625 C   0  0  0  0  0  0  0  0  0  0  0  0
   14.7425   10.0739   19.0802 O   0  0  0  0  0  0  0  0  0  0  0  0
    5.1894    9.4673   20.7118 C   0  0  0  0  0  0  0  0  0  0  0  0
    7.3773    8.8224   21.4870 C   0  0  0  0  0  0  0  0  0  0  0  0
    8.4391    6.6439   21.0235 C   0  0  0  0  0  0  0  0  0  0  0  0
    9.6494   11.1353   20.4167 C   0  0  0  0  0  0  0  0  0  0  0  0
    8.1431    7.6829   21.9046 C   0  0  0  0  0  0  0  0  0  0  0  0
    7.7796   10.1314   21.5115 N   0  0  0  0  0  0  0  0  0  0  0  0
    9.2768    5.6183   21.4437 C   0  0  0  0  0  0  0  0  0  0  0  0
    8.6315    7.7322   23.1768 C   0  0  0  0  0  0  0  0  0  0  0  0
   13.0537    9.9821   20.5781 C   0  0  0  0  0  0  0  0  0  0  0  0
   10.3850    4.6575   23.2386 O   0  0  0  0  0  0  0  0  0  0  0  0
    4.2069    6.8450   20.7994 C   0  0  0  0  0  0  0  0  0  0  0  0
    3.0726   10.1043   19.8522 O   0  0  0  0  0  0  0  0  0  0  0  0
    5.5057    7.1196   21.1155 C   0  0  0  0  0  0  0  0  0  0  0  0
    7.0367   11.0229   21.9948 O   0  0  0  0  0  0  0  0  0  0  0  0
  1  8  4  0
  1 12  4  0
  2  9  1  0
  2 11  4  0
  2 25  4  0
  3 12  4  0
  3 14  1  0
  3 23  4  0
  4 13  4  0
  4 21  4  0
  4 24  1  0
  5  8  4  0
  5 23  4  0
  6 18  2  0
  7 15  4  0
  7 16  1  0
  7 27  4  0
  8 18  1  0
 10 18  1  0
 10 20  1  0
 11 15  4  0
 11 26  1  0
 13 22  4  0
 16 19  1  0
 16 20  2  0
 17 19  4  0
 17 21  4  0
 19 22  4  0
 20 28  1  0
 25 27  4  0
M  END
